**
** Heading +++++++++++++++++++++++++++++++++++++++++++++++++
**
*Heading
Hash: PXJD0WWr, Date: 03/11/2021, Unit system: MM_TON_S_C
**
** Nodes +++++++++++++++++++++++++++++++++++++++++++++++++++
**
*Node
23430, 1.96921764E+001, 4.33617241E+001, 0.00000000E+000
23604, 1.43973303E+001, 3.89589056E+001, 0.00000000E+000
24113, 2.98914802E+001, 3.09015545E+001, 5.00000000E+000
23620, 1.16249222E+001, 3.79559757E+001, 0.00000000E+000
21946, 3.01826594E+001, 2.76674378E+001, 4.34345777E+000
21442, 4.37133828E+001, 5.85711276E+001, 1.79623897E+000
23220, 2.99383321E+001, 3.45133312E+001, 0.00000000E+000
22720, 2.52466042E+001, 2.42935482E+001, 0.00000000E+000
22450, 0.00000000E+000, 6.53264716E-001, 3.57229194E+000
21267, 8.58746030E+000, 3.46554480E+001, 5.00000000E+000
21502, 0.00000000E+000, 1.93304289E+001, 3.33315159E+000
23656, 1.12410770E+001, 3.68470005E+001, 0.00000000E+000
20528, 2.03076923E+001, 5.07692308E+001, 5.00000000E+000
23239, 3.29895513E+001, 4.96249983E+001, 0.00000000E+000
24043, 3.57431529E+001, 5.39244291E+001, 5.00000000E+000
22402, 2.30759148E+001, 5.16919716E+001, 2.79797828E+000
22101, 4.51228350E+001, 4.13625987E+001, 1.52608741E+000
23243, 3.13824629E+001, 3.58656082E+001, 0.00000000E+000
22244, 9.23076923E-001, 4.43076923E+001, 8.33333333E-001
24168, 4.42282501E+001, 5.56396089E+001, 5.00000000E+000
** ... 8033 like lines cut
**
** Elements ++++++++++++++++++++++++++++++++++++++++++++++++
**
*Element, Type=C3D10, Elset=Solid_part-1
5206, 21309, 21301, 20932, 21321, 24928, 25060, 25059, 24971, 24970, 25061
5207, 20654, 21518, 21653, 21556, 25064, 25063, 25062, 25065, 25067, 25066
5208, 21201, 21167, 20830, 21180, 24565, 25069, 25068, 24567, 24512, 25070
5209, 21201, 21544, 20830, 20835, 25072, 25071, 25068, 25073, 25074, 23421
5210, 21045, 21005, 21116, 21536, 24058, 24291, 24290, 25075, 25077, 25076
5211, 21268, 20884, 21205, 21236, 25079, 25078, 24779, 24800, 25080, 24681
5212, 20756, 21524, 20698, 20730, 25082, 25081, 23140, 23141, 25083, 23084
5213, 20793, 21087, 21147, 21166, 25085, 24392, 25084, 25086, 24452, 24498
5214, 20793, 20781, 21527, 21123, 23252, 25088, 25087, 25089, 25091, 25090
5215, 20489, 21416, 20490, 21551, 22196, 22195, 21825, 25092, 25094, 25093
5216, 21523, 21073, 21161, 21128, 25096, 24434, 25095, 25097, 24341, 24435
5217, 21328, 21335, 21313, 21549, 25023, 25022, 24994, 25098, 25100, 25099
5218, 20852, 20820, 21119, 21217, 23445, 25102, 25101, 25103, 25104, 24616
5219, 21128, 21161, 20697, 20765, 24435, 25106, 25105, 25107, 25108, 23166
5220, 21045, 21536, 21089, 21528, 25075, 25109, 24199, 25110, 25112, 25111
5221, 21577, 21672, 21559, 20625, 25115, 25114, 25113, 25116, 25118, 25117
5222, 21718, 20997, 21692, 21727, 25121, 25120, 25119, 25122, 25124, 25123
5223, 20860, 21540, 20869, 20832, 25126, 25125, 23493, 23469, 25127, 23496
5224, 21414, 21347, 21680, 21552, 22190, 25129, 25128, 25130, 25132, 25131
5225, 21249, 21255, 21278, 21544, 24847, 24813, 24912, 25133, 25135, 25134
** ... 4265 like lines cut
**
** Node sets +++++++++++++++++++++++++++++++++++++++++++++++
**
*Nset, Nset=BC
20409, 20410, 20413, 20414, 20543, 20544, 20545, 20546, 20547, 20548, 20549, 20550, 20551, 20552, 20553, 20554, 
20555, 20556, 20557, 20558, 20559, 20560, 20561, 20562, 20563, 20564, 20565, 20566, 20567, 20568, 20569, 20570, 
20571, 20572, 20573, 20574, 20575, 20576, 20577, 20578, 20579, 20580, 20581, 20582, 20583, 20584, 21344, 21345, 
21348, 21349, 21475, 21476, 21477, 21478, 21479, 21480, 21481, 21482, 21483, 21484, 21485, 21486, 21487, 21488, 
21489, 21490, 21491, 21492, 21493, 21494, 21495, 21496, 21497, 21498, 21499, 21500, 21501, 21502, 21503, 21504, 
21505, 21506, 21507, 21508, 21509, 21510, 21511, 21512, 21513, 21514, 21515, 21741, 21742, 21743, 21829, 21830, 
21831, 21884, 21885, 21886, 21887, 21888, 21889, 21890, 21891, 21892, 21893, 21894, 21895, 21896, 21897, 21898, 
21899, 21900, 21901, 21902, 21903, 21904, 21905, 21906, 21907, 21908, 21909, 21910, 21911, 21912, 21913, 21914, 
21915, 21916, 21917, 21918, 21919, 21920, 21921, 21922, 21923, 21924, 21925, 21926, 21927, 22446, 22447, 22448, 
22449, 22450, 22451, 22452, 22453, 22454, 22455, 22456, 22457, 22458, 22459, 22460, 22461, 22462, 22463, 22464, 
22465, 22466, 22467, 22468, 22469, 22470, 22471, 22472, 22473, 22474, 22475, 22476, 22477, 22478, 22479, 22480, 
22481, 22482, 22483, 22484, 22485, 22486, 22487, 22488, 22489, 22490, 22491, 22492, 22493, 22494, 22495, 22496, 
22497, 22498, 22499, 22500, 22501, 22502, 22503, 22504, 22505, 22506, 22507, 22508, 22509, 22510, 22511, 22512, 
22513, 22514, 22515, 22516, 22517, 22518, 22519, 22520, 22521, 22522, 22523, 22524, 22525, 22526, 22527, 22528, 
22529, 22530, 22531, 22532, 22533, 22534, 22535, 22536, 22537, 22538, 22539, 22540, 22541, 22542, 22543, 22544, 
22545, 22546, 22547, 22548, 22549, 22550, 22551, 22552, 22553, 22554, 22555, 22556, 22557, 22558, 22559, 22560, 
22561, 22562, 22563, 22564, 22565, 22566, 22567, 22568, 22569, 22570, 22571, 22572, 22573, 22574, 22575, 22576, 
22577, 22578, 22579, 22580, 22581, 22582, 22583, 22584, 22585, 22586, 22587, 22588, 22589, 22590, 22591, 22592, 
22593, 22594, 22595, 22596, 22597, 22598, 22599, 22600, 22601, 22602, 22603, 22604, 22605, 22606, 22607, 22608, 
22609, 22610, 22611, 22612, 22613, 22614, 22615
*Nset, Nset=Vertex
20412
*Nset, Nset=Load
20407, 20408, 20411, 20412, 20479, 20480, 20481, 20482, 20483, 20484, 20485, 20486, 20487, 20488, 20489, 20490, 
20491, 20492, 21342, 21343, 21346, 21347, 21413, 21414, 21415, 21416, 21417, 21418, 21419, 21420, 21421, 21422, 
21423, 21424, 21425, 21738, 21739, 21740, 21810, 21811, 21812, 21813, 21814, 21815, 21816, 21817, 21818, 21819, 
21820, 21821, 21822, 21823, 21824, 21825, 21826, 21827, 21828, 22186, 22187, 22188, 22189, 22190, 22191, 22192, 
22193, 22194, 22195, 22196, 22197, 22198, 22199, 22200, 22201, 22202, 22203, 22204, 22205, 22206, 22207, 22208, 
22209, 22210, 22211, 22212, 22213, 22214, 22215, 22216, 22217, 22218, 22219, 22220, 22221, 22222, 22223, 22224, 
22225, 22226, 22227, 22228, 22229, 22230, 22231, 22232, 22233, 22234, 22235, 22236, 22237, 22238, 22239, 22240, 
22241, 22242, 22243
*Nset, Nset=ZSYMM
20407, 20408, 20409, 20410, 20411, 20412, 20413, 20414, 20415, 20416, 20417, 20418, 20419, 20420, 20421, 20422, 
20423, 20424, 20425, 20426, 20427, 20428, 20429, 20430, 20431, 20432, 20433, 20434, 20435, 20436, 20437, 20438, 
20439, 20440, 20441, 20442, 20443, 20444, 20445, 20446, 20447, 20448, 20449, 20450, 20451, 20452, 20453, 20454, 
20455, 20456, 20457, 20458, 20459, 20460, 20461, 20462, 20463, 20464, 20465, 20466, 20467, 20468, 20469, 20470, 
20471, 20472, 20473, 20474, 20475, 20476, 20477, 20478, 20479, 20480, 20481, 20482, 20483, 20484, 20485, 20486, 
20487, 20488, 20489, 20490, 20491, 20492, 20493, 20494, 20495, 20496, 20497, 20498, 20499, 20500, 20501, 20502, 
20503, 20504, 20505, 20506, 20507, 20508, 20509, 20510, 20511, 20512, 20513, 20514, 20515, 20516, 20517, 20518, 
20519, 20520, 20521, 20522, 20523, 20524, 20525, 20526, 20527, 20528, 20529, 20530, 20531, 20532, 20533, 20534, 
20535, 20536, 20537, 20538, 20539, 20540, 20541, 20542, 20543, 20544, 20545, 20546, 20547, 20548, 20549, 20550, 
20551, 20552, 20553, 20554, 20555, 20556, 20557, 20558, 20559, 20560, 20561, 20562, 20563, 20564, 20565, 20566, 
20567, 20568, 20569, 20570, 20571, 20572, 20573, 20574, 20575, 20576, 20577, 20578, 20579, 20580, 20581, 20582, 
20583, 20584, 20585, 20586, 20587, 20588, 20589, 20590, 20591, 20592, 20593, 20594, 20595, 20596, 20597, 20598, 
20599, 20600, 20601, 20602, 20603, 20604, 20605, 20606, 20607, 20608, 20609, 20610, 20611, 20612, 20613, 20614, 
20615, 20616, 20617, 20618, 20619, 20620, 20621, 20622, 20623, 20624, 20625, 20626, 20627, 20628, 20629, 20630, 
20631, 20632, 20633, 20634, 20635, 20636, 20637, 20638, 20639, 20640, 20641, 20642, 20643, 20644, 20645, 20646, 
20647, 20648, 20649, 20650, 20651, 20652, 20653, 20654, 20655, 20656, 20657, 20658, 20659, 20660, 20661, 20662, 
20663, 20664, 20665, 20666, 20667, 20668, 20669, 20670, 20671, 20672, 20673, 20674, 20675, 20676, 20677, 20678, 
20679, 20680, 20681, 20682, 20683, 20684, 20685, 20686, 20687, 20688, 20689, 20690, 20691, 20692, 20693, 20694, 
20695, 20696, 20697, 20698, 20699, 20700, 20701, 20702, 20703, 20704, 20705, 20706, 20707, 20708, 20709, 20710, 
20711, 20712, 20713, 20714, 20715, 20716, 20717, 20718, 20719, 20720, 20721, 20722, 20723, 20724, 20725, 20726, 
** ... 203 like lines cut
*Nset, Nset=Internal-1_Internal_Selection-1_Traction
20489, 20490, 21416, 21825, 22195, 22196, 21418, 20492, 20408, 22200, 21828, 22199, 21343, 22202, 21740, 21423, 
22219, 22220, 21414, 20486, 21424, 22192, 22223, 22226, 21346, 21347, 21413, 21811, 22187, 22188, 21342, 21419, 
22205, 22206, 22203, 20480, 21425, 21421, 22231, 22232, 22213, 20412, 22190, 21812, 22189, 21415, 22236, 22233, 
22238, 20488, 21422, 21824, 22218, 22216, 20479, 22230, 22215, 22234, 22239, 22242, 22217, 21420, 22241, 22240, 
20481, 20482, 22214, 22229, 21816, 20411, 22186, 21813, 21810, 20487, 22222, 22194, 21417, 22237, 22201, 20485, 
20407, 22204, 21738, 21820, 22228, 22243, 22227, 20491, 21827, 22197, 22198, 21823, 22193, 22191, 22235, 22211, 
22224, 21814, 21822, 22225, 22221, 20483, 21817, 22212, 20484, 22208, 22210, 21815, 22207, 21821, 22209, 21818, 
21826, 21819, 21739
**
** Element sets ++++++++++++++++++++++++++++++++++++++++++++
**
*Elset, Elset=C3D10
5206, 5207, 5208, 5209, 5210, 5211, 5212, 5213, 5214, 5215, 5216, 5217, 5218, 5219, 5220, 5221, 
5222, 5223, 5224, 5225, 5226, 5227, 5228, 5229, 5230, 5231, 5232, 5233, 5234, 5235, 5236, 5237, 
5238, 5239, 5240, 5241, 5242, 5243, 5244, 5245, 5246, 5247, 5248, 5249, 5250, 5251, 5252, 5253, 
5254, 5255, 5256, 5257, 5258, 5259, 5260, 5261, 5262, 5263, 5264, 5265, 5266, 5267, 5268, 5269, 
5270, 5271, 5272, 5273, 5274, 5275, 5276, 5277, 5278, 5279, 5280, 5281, 5282, 5283, 5284, 5285, 
5286, 5287, 5288, 5289, 5290, 5291, 5292, 5293, 5294, 5295, 5296, 5297, 5298, 5299, 5300, 5301, 
5302, 5303, 5304, 5305, 5306, 5307, 5308, 5309, 5310, 5311, 5312, 5313, 5314, 5315, 5316, 5317, 
5318, 5319, 5320, 5321, 5322, 5323, 5324, 5325, 5326, 5327, 5328, 5329, 5330, 5331, 5332, 5333, 
5334, 5335, 5336, 5337, 5338, 5339, 5340, 5341, 5342, 5343, 5344, 5345, 5346, 5347, 5348, 5349, 
5350, 5351, 5352, 5353, 5354, 5355, 5356, 5357, 5358, 5359, 5360, 5361, 5362, 5363, 5364, 5365, 
5366, 5367, 5368, 5369, 5370, 5371, 5372, 5373, 5374, 5375, 5376, 5377, 5378, 5379, 5380, 5381, 
5382, 5383, 5384, 5385, 5386, 5387, 5388, 5389, 5390, 5391, 5392, 5393, 5394, 5395, 5396, 5397, 
5398, 5399, 5400, 5401, 5402, 5403, 5404, 5405, 5406, 5407, 5408, 5409, 5410, 5411, 5412, 5413, 
5414, 5415, 5416, 5417, 5418, 5419, 5420, 5421, 5422, 5423, 5424, 5425, 5426, 5427, 5428, 5429, 
5430, 5431, 5432, 5433, 5434, 5435, 5436, 5437, 5438, 5439, 5440, 5441, 5442, 5443, 5444, 5445, 
5446, 5447, 5448, 5449, 5450, 5451, 5452, 5453, 5454, 5455, 5456, 5457, 5458, 5459, 5460, 5461, 
5462, 5463, 5464, 5465, 5466, 5467, 5468, 5469, 5470, 5471, 5472, 5473, 5474, 5475, 5476, 5477, 
5478, 5479, 5480, 5481, 5482, 5483, 5484, 5485, 5486, 5487, 5488, 5489, 5490, 5491, 5492, 5493, 
5494, 5495, 5496, 5497, 5498, 5499, 5500, 5501, 5502, 5503, 5504, 5505, 5506, 5507, 5508, 5509, 
5510, 5511, 5512, 5513, 5514, 5515, 5516, 5517, 5518, 5519, 5520, 5521, 5522, 5523, 5524, 5525, 
** ... 248 like lines cut
*Elset, Elset=Internal-1_Internal_Selection-1_Traction_S1
5215, 6939, 7126, 7224, 7429, 9456
*Elset, Elset=Internal-2_Internal_Selection-1_Traction_S2
5538, 5542, 6556, 6567, 6700, 7246, 7443, 7603, 8191, 8240, 8321, 8663, 8919, 9133, 9416
*Elset, Elset=Internal-3_Internal_Selection-1_Traction_S4
5640, 5994, 6026, 6701, 6759, 6930, 8265, 8517
*Elset, Elset=Internal-4_Internal_Selection-1_Traction_S3
5832, 5856, 5931, 5945, 6361, 6581, 7105, 7146, 7208, 7223, 7437, 7444, 7446, 7608, 7953, 7993, 
8891
**
** Surfaces ++++++++++++++++++++++++++++++++++++++++++++++++
**
*Surface, Name=Internal_Selection-1_Traction, Type=Element
Internal-1_Internal_Selection-1_Traction_S1, S1
Internal-2_Internal_Selection-1_Traction_S2, S2
Internal-3_Internal_Selection-1_Traction_S4, S4
Internal-4_Internal_Selection-1_Traction_S3, S3
**
** Materials +++++++++++++++++++++++++++++++++++++++++++++++
**
** Name: Material-1: Deactivated
*Material, Name=Rubber
*Elastic,
70.0, 0.4999
**
** Sections ++++++++++++++++++++++++++++++++++++++++++++++++
**
*SOLID SECTION, ELSET=Solid_part-1, Material=Rubber
**
** Pre-tension sections ++++++++++++++++++++++++++++++++++++
**
**
** Constraints +++++++++++++++++++++++++++++++++++++++++++++
**
**
** Surface interactions ++++++++++++++++++++++++++++++++++++
**
**
** Contact pairs +++++++++++++++++++++++++++++++++++++++++++
**
**
** Steps +++++++++++++++++++++++++++++++++++++++++++++++++++
**
**
** Step-1 ++++++++++++++++++++++++++++++++++++++++++++++++++
**
*Step
*Static
**
** Boundary conditions +++++++++++++++++++++++++++++++++++++
**
*Boundary, op=New
** Name: Disp_rot-1
*Boundary
BC, 1, 1, 0
BC, 2, 2, 0
BC, 3, 3, 0
** Name: Disp_rot-2
*Boundary
ZSYMM, 3, 3, 0
**
** Loads +++++++++++++++++++++++++++++++++++++++++++++++++++
**
*Dload, op=New
*Cload, op=New
** Name: Traction
*Cload
22196, 2, 10.0332459309652
22195, 2, 8.64768389126547
21825, 2, 4.95663015041667
22201, 2, 6.28084095651148
22237, 2, 6.71070992543297
22206, 2, 7.31428919046677
22243, 2, 6.67457822562933
22228, 2, 7.46683063035786
22235, 2, 5.76498364428812
22226, 2, 4.85129161870321
22191, 2, 4.86596716955163
22230, 2, 7.87526475920383
21814, 2, 3.65101273191667
22231, 2, 7.46350566127598
22203, 2, 6.7064356055619
21739, 2, 2.49649727073347
22202, 2, 4.99299454154183
22199, 2, 6.09115025497503
21828, 2, 3.59465298416666
22200, 2, 6.77114308503981
** ... 60 like lines cut
**
** History outputs +++++++++++++++++++++++++++++++++++++++++
**
*Node print, Nset=Vertex
U
**
** Field outputs +++++++++++++++++++++++++++++++++++++++++++
**
*Node file
RF, U
*El file
S, E
*NODE PRINT, NSET=Vertex,
U2
**
** End step ++++++++++++++++++++++++++++++++++++++++++++++++
**
*End step
