**
** Heading +++++++++++++++++++++++++++++++++++++++++++++++++
**
*Heading
Hash: 14U2wvCl, Date: 05/19/2021, Unit system: M_KG_S_C
**
** Nodes +++++++++++++++++++++++++++++++++++++++++++++++++++
**
*Node
1, 0.00000000E+000, 0.00000000E+000, 0.00000000E+000
2, 0.00000000E+000, 0.00000000E+000, 5.08000000E-001
3, 3.07958634E-001, 1.77800000E-001, 0.00000000E+000
4, 3.07958634E-001, 1.77800000E-001, 5.08000000E-001
5, 2.48822272E+000, -4.06400000E-001, 0.00000000E+000
6, 2.48822272E+000, -4.06400000E-001, 5.08000000E-001
7, -6.53226603E-017, 0.00000000E+000, 1.69333333E-001
8, -6.53226603E-017, 0.00000000E+000, 3.38666667E-001
9, 1.77800000E-001, 4.76413664E-002, 0.00000000E+000
10, 3.07958634E-001, 1.77800000E-001, 1.69333333E-001
11, 3.07958634E-001, 1.77800000E-001, 3.38666667E-001
12, 1.77800000E-001, 4.76413664E-002, 5.08000000E-001
13, 2.46461011E+000, -1.72689979E-001, 0.00000000E+000
14, 2.39472670E+000, 5.15737870E-002, 0.00000000E+000
15, 2.28139706E+000, 2.57326850E-001, 0.00000000E+000
16, 2.12920185E+000, 4.36252939E-001, 0.00000000E+000
17, 1.94429259E+000, 5.81120096E-001, 0.00000000E+000
18, 1.73414307E+000, 6.86072978E-001, 0.00000000E+000
19, 1.50724726E+000, 7.46869527E-001, 0.00000000E+000
20, 1.27277599E+000, 7.61052425E-001, 0.00000000E+000
** ... 44 like lines cut
**
** Elements ++++++++++++++++++++++++++++++++++++++++++++++++
**
*Element, Type=S4, Elset=Shell_part-1
1, 2, 8, 39, 12
2, 12, 39, 11, 4
3, 8, 7, 40, 39
4, 39, 40, 10, 11
5, 7, 1, 9, 40
6, 40, 9, 3, 10
7, 4, 11, 41, 38
8, 38, 41, 42, 37
9, 37, 42, 43, 36
10, 36, 43, 44, 35
11, 35, 44, 45, 34
12, 34, 45, 46, 33
13, 33, 46, 47, 32
14, 32, 47, 48, 31
15, 31, 48, 49, 30
16, 30, 49, 50, 29
17, 29, 50, 51, 28
18, 28, 51, 52, 27
19, 27, 52, 26, 6
20, 11, 10, 53, 41
** ... 25 like lines cut
**
** Node sets +++++++++++++++++++++++++++++++++++++++++++++++
**
*Nset, Nset=fixedge
1, 2, 7, 8
*Nset, Nset=load
5, 6, 25, 26
*Nset, Nset=main
1, 2, 3, 4, 5, 6, 7, 8, 9, 10, 11, 12, 13, 14, 15, 16, 
17, 18, 19, 20, 21, 22, 23, 24, 25, 26, 27, 28, 29, 30, 31, 32, 
33, 34, 35, 36, 37, 38, 39, 40, 41, 42, 43, 44, 45, 46, 47, 48, 
49, 50, 51, 52, 53, 54, 55, 56, 57, 58, 59, 60, 61, 62, 63, 64

*Nset, Nset=Disp
6
*Nset, Nset=Internal-1_Internal_Selection-1_Surface_traction-1
26, 6, 25, 5
**
** Element sets ++++++++++++++++++++++++++++++++++++++++++++
**
*Elset, Elset=S4
1, 2, 3, 4, 5, 6, 7, 8, 9, 10, 11, 12, 13, 14, 15, 16, 
17, 18, 19, 20, 21, 22, 23, 24, 25, 26, 27, 28, 29, 30, 31, 32, 
33, 34, 35, 36, 37, 38, 39, 40, 41, 42, 43, 44, 45
*Elset, Elset=main
1, 2, 3, 4, 5, 6, 7, 8, 9, 10, 11, 12, 13, 14, 15, 16, 
17, 18, 19, 20, 21, 22, 23, 24, 25, 26, 27, 28, 29, 30, 31, 32, 
33, 34, 35, 36, 37, 38, 39, 40, 41, 42, 43, 44, 45
*Elset, Elset=Internal-1_Internal_Selection-1_Surface_traction-1_S5
19, 32, 45
**
** Surfaces ++++++++++++++++++++++++++++++++++++++++++++++++
**
*Surface, Name=Surface-1, Type=Node
load
*Surface, Name=Internal_Selection-1_Surface_traction-1, Type=Element
Internal-1_Internal_Selection-1_Surface_traction-1_S5, S5
**
** Materials +++++++++++++++++++++++++++++++++++++++++++++++
**
*Material, Name=Material-1
*Elastic
22770000, 0.35
**
** Sections ++++++++++++++++++++++++++++++++++++++++++++++++
**
*Shell section, Elset=S4, Material=Material-1, Offset=0
0.0508
**
** Pre-tension sections ++++++++++++++++++++++++++++++++++++
**
**
** Constraints +++++++++++++++++++++++++++++++++++++++++++++
**
**
** Surface interactions ++++++++++++++++++++++++++++++++++++
**
**
** Contact pairs +++++++++++++++++++++++++++++++++++++++++++
**
**
** Steps +++++++++++++++++++++++++++++++++++++++++++++++++++
**
**
** Step-1 ++++++++++++++++++++++++++++++++++++++++++++++++++
**
*Step
*Static
**
** Boundary conditions +++++++++++++++++++++++++++++++++++++
**
*Boundary, op=New
** Name: Displacement_rotation-1
*Boundary, Fixed
fixedge, 1, 1
fixedge, 2, 2
fixedge, 3, 3
**
** Loads +++++++++++++++++++++++++++++++++++++++++++++++++++
**
*Dload, op=New
*Cload, op=New
** Name: Surface_traction-1
*Cload
26, 3, 1.48273346668126
6, 3, 0.741366733318739
25, 3, 1.48273346668126
5, 3, 0.741366733318739
**
** History outputs +++++++++++++++++++++++++++++++++++++++++
**
*Node print, Nset=Disp, Totals=Yes
U
**
** Field outputs +++++++++++++++++++++++++++++++++++++++++++
**
*Node file
RF, U
*El file
S, E
**
** End step ++++++++++++++++++++++++++++++++++++++++++++++++
**
*End step
