**
** Heading +++++++++++++++++++++++++++++++++++++++++++++++++
**
*Heading
Hash: 14U2wvCl, Date: 05/19/2021, Unit system: M_KG_S_C
**
** Nodes +++++++++++++++++++++++++++++++++++++++++++++++++++
**
*Node
93, 9.27585564E-001, 6.94194647E-001, 4.06400000E-001
142, 8.18938327E-001, 6.49191488E-001, 2.03200000E-001
89, 5.27576246E-001, 4.52380585E-001, 4.06400000E-001
124, 1.62222689E+000, 7.22187735E-001, 3.04800000E-001
30, 1.94429259E+000, 5.81120096E-001, 0.00000000E+000
188, -6.53226603E-017, 0.00000000E+000, 1.52400000E-001
100, 1.73414307E+000, 6.86072978E-001, 4.06400000E-001
108, 2.39472670E+000, 5.15737870E-002, 4.06400000E-001
115, 6.17915454E-001, 5.27668925E-001, 3.04800000E-001
140, 6.17915454E-001, 5.27668925E-001, 2.03200000E-001
92, 8.18938327E-001, 6.49191488E-001, 4.06400000E-001
91, 7.15365213E-001, 5.93494839E-001, 4.06400000E-001
90, 6.17915454E-001, 5.27668925E-001, 4.06400000E-001
96, 1.27277599E+000, 7.61052425E-001, 4.06400000E-001
104, 2.12920185E+000, 4.36252939E-001, 4.06400000E-001
111, 2.48230458E+000, -2.88950087E-001, 4.06400000E-001
126, 1.84186204E+000, 6.38891109E-001, 3.04800000E-001
136, 2.48230458E+000, -2.88950087E-001, 3.04800000E-001
132, 2.34324569E+000, 1.57305580E-001, 3.04800000E-001
128, 2.04039705E+000, 5.13345179E-001, 3.04800000E-001
** ... 501 like lines cut
**
** Elements ++++++++++++++++++++++++++++++++++++++++++++++++
**
*Element, Type=S8, Elset=Shell_part-1
1, 2, 10, 75, 18, 191, 262, 263, 201
2, 18, 75, 76, 19, 263, 264, 265, 202
3, 19, 76, 77, 20, 265, 266, 267, 203
4, 20, 77, 17, 4, 267, 268, 200, 204
5, 10, 9, 78, 75, 190, 269, 270, 262
6, 75, 78, 79, 76, 270, 271, 272, 264
7, 76, 79, 80, 77, 272, 273, 274, 266
8, 77, 80, 16, 17, 274, 275, 199, 268
9, 9, 8, 81, 78, 189, 276, 277, 269
10, 78, 81, 82, 79, 277, 278, 279, 271
11, 79, 82, 83, 80, 279, 280, 281, 273
12, 80, 83, 15, 16, 281, 282, 198, 275
13, 8, 7, 84, 81, 188, 283, 284, 276
14, 81, 84, 85, 82, 284, 285, 286, 278
15, 82, 85, 86, 83, 286, 287, 288, 280
16, 83, 86, 14, 15, 288, 289, 197, 282
17, 7, 1, 11, 84, 187, 192, 290, 283
18, 84, 11, 12, 85, 290, 193, 291, 285
19, 85, 12, 13, 86, 291, 194, 292, 287
20, 86, 13, 3, 14, 292, 195, 196, 289
** ... 130 like lines cut
**
** Node sets +++++++++++++++++++++++++++++++++++++++++++++++
**
*Nset, Nset=fixedge
1, 2, 7, 8, 9, 10, 187, 188, 189, 190, 191
*Nset, Nset=load
5, 6, 46, 47, 48, 49, 231, 232, 233, 234, 235
*Nset, Nset=main
1, 2, 3, 4, 5, 6, 7, 8, 9, 10, 11, 12, 13, 14, 15, 16, 
17, 18, 19, 20, 21, 22, 23, 24, 25, 26, 27, 28, 29, 30, 31, 32, 
33, 34, 35, 36, 37, 38, 39, 40, 41, 42, 43, 44, 45, 46, 47, 48, 
49, 50, 51, 52, 53, 54, 55, 56, 57, 58, 59, 60, 61, 62, 63, 64, 
65, 66, 67, 68, 69, 70, 71, 72, 73, 74, 75, 76, 77, 78, 79, 80, 
81, 82, 83, 84, 85, 86, 87, 88, 89, 90, 91, 92, 93, 94, 95, 96, 
97, 98, 99, 100, 101, 102, 103, 104, 105, 106, 107, 108, 109, 110, 111, 112, 
113, 114, 115, 116, 117, 118, 119, 120, 121, 122, 123, 124, 125, 126, 127, 128, 
129, 130, 131, 132, 133, 134, 135, 136, 137, 138, 139, 140, 141, 142, 143, 144, 
145, 146, 147, 148, 149, 150, 151, 152, 153, 154, 155, 156, 157, 158, 159, 160, 
161, 162, 163, 164, 165, 166, 167, 168, 169, 170, 171, 172, 173, 174, 175, 176, 
177, 178, 179, 180, 181, 182, 183, 184, 185, 186, 187, 188, 189, 190, 191, 192, 
193, 194, 195, 196, 197, 198, 199, 200, 201, 202, 203, 204, 205, 206, 207, 208, 
209, 210, 211, 212, 213, 214, 215, 216, 217, 218, 219, 220, 221, 222, 223, 224, 
225, 226, 227, 228, 229, 230, 231, 232, 233, 234, 235, 236, 237, 238, 239, 240, 
241, 242, 243, 244, 245, 246, 247, 248, 249, 250, 251, 252, 253, 254, 255, 256, 
257, 258, 259, 260, 261, 262, 263, 264, 265, 266, 267, 268, 269, 270, 271, 272, 
273, 274, 275, 276, 277, 278, 279, 280, 281, 282, 283, 284, 285, 286, 287, 288, 
289, 290, 291, 292, 293, 294, 295, 296, 297, 298, 299, 300, 301, 302, 303, 304, 
305, 306, 307, 308, 309, 310, 311, 312, 313, 314, 315, 316, 317, 318, 319, 320, 
** ... 13 like lines cut
*Nset, Nset=Disp
6
*Nset, Nset=Internal-1_Internal_Selection-1_Surface_traction-1
49, 6, 235, 48, 234, 47, 233, 46, 232, 5, 231
**
** Element sets ++++++++++++++++++++++++++++++++++++++++++++
**
*Elset, Elset=S8
1, 2, 3, 4, 5, 6, 7, 8, 9, 10, 11, 12, 13, 14, 15, 16, 
17, 18, 19, 20, 21, 22, 23, 24, 25, 26, 27, 28, 29, 30, 31, 32, 
33, 34, 35, 36, 37, 38, 39, 40, 41, 42, 43, 44, 45, 46, 47, 48, 
49, 50, 51, 52, 53, 54, 55, 56, 57, 58, 59, 60, 61, 62, 63, 64, 
65, 66, 67, 68, 69, 70, 71, 72, 73, 74, 75, 76, 77, 78, 79, 80, 
81, 82, 83, 84, 85, 86, 87, 88, 89, 90, 91, 92, 93, 94, 95, 96, 
97, 98, 99, 100, 101, 102, 103, 104, 105, 106, 107, 108, 109, 110, 111, 112, 
113, 114, 115, 116, 117, 118, 119, 120, 121, 122, 123, 124, 125, 126, 127, 128, 
129, 130, 131, 132, 133, 134, 135, 136, 137, 138, 139, 140, 141, 142, 143, 144, 
145, 146, 147, 148, 149, 150
*Elset, Elset=main
1, 2, 3, 4, 5, 6, 7, 8, 9, 10, 11, 12, 13, 14, 15, 16, 
17, 18, 19, 20, 21, 22, 23, 24, 25, 26, 27, 28, 29, 30, 31, 32, 
33, 34, 35, 36, 37, 38, 39, 40, 41, 42, 43, 44, 45, 46, 47, 48, 
49, 50, 51, 52, 53, 54, 55, 56, 57, 58, 59, 60, 61, 62, 63, 64, 
65, 66, 67, 68, 69, 70, 71, 72, 73, 74, 75, 76, 77, 78, 79, 80, 
81, 82, 83, 84, 85, 86, 87, 88, 89, 90, 91, 92, 93, 94, 95, 96, 
97, 98, 99, 100, 101, 102, 103, 104, 105, 106, 107, 108, 109, 110, 111, 112, 
113, 114, 115, 116, 117, 118, 119, 120, 121, 122, 123, 124, 125, 126, 127, 128, 
129, 130, 131, 132, 133, 134, 135, 136, 137, 138, 139, 140, 141, 142, 143, 144, 
145, 146, 147, 148, 149, 150
*Elset, Elset=Internal-1_Internal_Selection-1_Surface_traction-1_S5
46, 72, 98, 124, 150
**
** Surfaces ++++++++++++++++++++++++++++++++++++++++++++++++
**
*Surface, Name=Surface-1, Type=Node
load
*Surface, Name=Internal_Selection-1_Surface_traction-1, Type=Element
Internal-1_Internal_Selection-1_Surface_traction-1_S5, S5
**
** Materials +++++++++++++++++++++++++++++++++++++++++++++++
**
*Material, Name=Material-1
*Elastic
22770000, 0.35
**
** Sections ++++++++++++++++++++++++++++++++++++++++++++++++
**
*Shell section, Elset=S8, Material=Material-1, Offset=0
0.0508
**
** Pre-tension sections ++++++++++++++++++++++++++++++++++++
**
**
** Constraints +++++++++++++++++++++++++++++++++++++++++++++
**
**
** Surface interactions ++++++++++++++++++++++++++++++++++++
**
**
** Contact pairs +++++++++++++++++++++++++++++++++++++++++++
**
**
** Steps +++++++++++++++++++++++++++++++++++++++++++++++++++
**
**
** Step-1 ++++++++++++++++++++++++++++++++++++++++++++++++++
**
*Step
*Static
**
** Boundary conditions +++++++++++++++++++++++++++++++++++++
**
*Boundary, op=New
** Name: Displacement_rotation-1
*Boundary, Fixed
fixedge, 1, 1
fixedge, 2, 2
fixedge, 3, 3
**
** Loads +++++++++++++++++++++++++++++++++++++++++++++++++++
**
*Dload, op=New
*Cload, op=New
** Name: Surface_traction-1
*Cload
49, 3, 0.296546693333333
6, 3, 0.148273346666667
235, 3, 0.593093386666667
48, 3, 0.296546693333333
234, 3, 0.593093386666666
47, 3, 0.296546693333333
233, 3, 0.593093386666667
46, 3, 0.296546693333333
232, 3, 0.593093386666667
5, 3, 0.148273346666667
231, 3, 0.593093386666667
**
** History outputs +++++++++++++++++++++++++++++++++++++++++
**
*Node print, Nset=Disp, Totals=Yes
U
**
** Field outputs +++++++++++++++++++++++++++++++++++++++++++
**
*Node file
RF, U
*El file
S, E
**
** End step ++++++++++++++++++++++++++++++++++++++++++++++++
**
*End step
