**
** Heading +++++++++++++++++++++++++++++++++++++++++++++++++
**
*Heading
Hash: 14U2wvCl, Date: 05/19/2021, Unit system: M_KG_S_C
**
** Nodes +++++++++++++++++++++++++++++++++++++++++++++++++++
**
*Node
1, 0.00000000E+000, 0.00000000E+000, 0.00000000E+000
2, 0.00000000E+000, 0.00000000E+000, 5.08000000E-001
3, 3.07958634E-001, 1.77800000E-001, 0.00000000E+000
4, 3.07958634E-001, 1.77800000E-001, 5.08000000E-001
5, 2.48822272E+000, -4.06400000E-001, 0.00000000E+000
6, 2.48822272E+000, -4.06400000E-001, 5.08000000E-001
7, -6.53226603E-017, 0.00000000E+000, 1.69333333E-001
8, -6.53226603E-017, 0.00000000E+000, 3.38666667E-001
9, 1.77800000E-001, 4.76413664E-002, 0.00000000E+000
10, 3.07958634E-001, 1.77800000E-001, 1.69333333E-001
11, 3.07958634E-001, 1.77800000E-001, 3.38666667E-001
12, 1.77800000E-001, 4.76413664E-002, 5.08000000E-001
13, 2.46461011E+000, -1.72689979E-001, 0.00000000E+000
14, 2.39472670E+000, 5.15737870E-002, 0.00000000E+000
15, 2.28139706E+000, 2.57326850E-001, 0.00000000E+000
16, 2.12920185E+000, 4.36252939E-001, 0.00000000E+000
17, 1.94429259E+000, 5.81120096E-001, 0.00000000E+000
18, 1.73414307E+000, 6.86072978E-001, 0.00000000E+000
19, 1.50724726E+000, 7.46869527E-001, 0.00000000E+000
20, 1.27277599E+000, 7.61052425E-001, 0.00000000E+000
** ... 197 like lines cut
**
** Elements ++++++++++++++++++++++++++++++++++++++++++++++++
**
*Element, Type=S6, Elset=Shell_part-1
1, 11, 4, 12, 72, 74, 174
2, 40, 39, 8, 79, 75, 175
3, 10, 11, 39, 71, 77, 176
4, 9, 40, 7, 81, 78, 177
5, 3, 10, 40, 70, 80, 178
6, 41, 38, 4, 112, 110, 179
7, 42, 37, 38, 114, 109, 180
8, 43, 36, 37, 116, 108, 181
9, 44, 35, 36, 118, 107, 182
10, 45, 34, 35, 120, 106, 183
11, 46, 33, 34, 122, 105, 184
12, 47, 32, 33, 124, 104, 185
13, 48, 31, 32, 126, 103, 186
14, 49, 30, 31, 128, 102, 187
15, 50, 29, 30, 130, 101, 188
16, 51, 28, 29, 132, 100, 189
17, 52, 27, 28, 134, 99, 190
18, 26, 6, 27, 97, 98, 191
19, 53, 41, 11, 137, 111, 192
20, 54, 42, 41, 139, 113, 193
** ... 70 like lines cut
**
** Node sets +++++++++++++++++++++++++++++++++++++++++++++++
**
*Nset, Nset=fixedge
1, 2, 7, 8, 65, 66, 67
*Nset, Nset=load
5, 6, 25, 26, 95, 96, 97
*Nset, Nset=main
1, 2, 3, 4, 5, 6, 7, 8, 9, 10, 11, 12, 13, 14, 15, 16, 
17, 18, 19, 20, 21, 22, 23, 24, 25, 26, 27, 28, 29, 30, 31, 32, 
33, 34, 35, 36, 37, 38, 39, 40, 41, 42, 43, 44, 45, 46, 47, 48, 
49, 50, 51, 52, 53, 54, 55, 56, 57, 58, 59, 60, 61, 62, 63, 64, 
65, 66, 67, 68, 69, 70, 71, 72, 73, 74, 75, 76, 77, 78, 79, 80, 
81, 82, 83, 84, 85, 86, 87, 88, 89, 90, 91, 92, 93, 94, 95, 96, 
97, 98, 99, 100, 101, 102, 103, 104, 105, 106, 107, 108, 109, 110, 111, 112, 
113, 114, 115, 116, 117, 118, 119, 120, 121, 122, 123, 124, 125, 126, 127, 128, 
129, 130, 131, 132, 133, 134, 135, 136, 137, 138, 139, 140, 141, 142, 143, 144, 
145, 146, 147, 148, 149, 150, 151, 152, 153, 154, 155, 156, 157, 158, 159, 160, 
161, 162, 163, 164, 165, 166, 167, 168, 169, 170, 171, 172, 173, 174, 175, 176, 
177, 178, 179, 180, 181, 182, 183, 184, 185, 186, 187, 188, 189, 190, 191, 192, 
193, 194, 195, 196, 197, 198, 199, 200, 201, 202, 203, 204, 205, 206, 207, 208, 
209, 210, 211, 212, 213, 214, 215, 216, 217
*Nset, Nset=Disp
6
*Nset, Nset=Internal-1_Internal_Selection-1_Surface_traction-1
26, 6, 97, 25, 96, 5, 95
**
** Element sets ++++++++++++++++++++++++++++++++++++++++++++
**
*Elset, Elset=S6
1, 2, 3, 4, 5, 6, 7, 8, 9, 10, 11, 12, 13, 14, 15, 16, 
17, 18, 19, 20, 21, 22, 23, 24, 25, 26, 27, 28, 29, 30, 31, 32, 
33, 34, 35, 36, 37, 38, 39, 40, 41, 42, 43, 44, 45, 46, 47, 48, 
49, 50, 51, 52, 53, 54, 55, 56, 57, 58, 59, 60, 61, 62, 63, 64, 
65, 66, 67, 68, 69, 70, 71, 72, 73, 74, 75, 76, 77, 78, 79, 80, 
81, 82, 83, 84, 85, 86, 87, 88, 89, 90
*Elset, Elset=main
1, 2, 3, 4, 5, 6, 7, 8, 9, 10, 11, 12, 13, 14, 15, 16, 
17, 18, 19, 20, 21, 22, 23, 24, 25, 26, 27, 28, 29, 30, 31, 32, 
33, 34, 35, 36, 37, 38, 39, 40, 41, 42, 43, 44, 45, 46, 47, 48, 
49, 50, 51, 52, 53, 54, 55, 56, 57, 58, 59, 60, 61, 62, 63, 64, 
65, 66, 67, 68, 69, 70, 71, 72, 73, 74, 75, 76, 77, 78, 79, 80, 
81, 82, 83, 84, 85, 86, 87, 88, 89, 90
*Elset, Elset=Internal-1_Internal_Selection-1_Surface_traction-1_S3
18, 31, 44
**
** Surfaces ++++++++++++++++++++++++++++++++++++++++++++++++
**
*Surface, Name=Surface-1, Type=Node
load
*Surface, Name=Internal_Selection-1_Surface_traction-1, Type=Element
Internal-1_Internal_Selection-1_Surface_traction-1_S3, S3
**
** Materials +++++++++++++++++++++++++++++++++++++++++++++++
**
*Material, Name=Material-1
*Elastic
22770000, 0.35
**
** Sections ++++++++++++++++++++++++++++++++++++++++++++++++
**
*Shell section, Elset=S6, Material=Material-1, Offset=0
0.0508
**
** Pre-tension sections ++++++++++++++++++++++++++++++++++++
**
**
** Constraints +++++++++++++++++++++++++++++++++++++++++++++
**
**
** Surface interactions ++++++++++++++++++++++++++++++++++++
**
**
** Contact pairs +++++++++++++++++++++++++++++++++++++++++++
**
**
** Steps +++++++++++++++++++++++++++++++++++++++++++++++++++
**
**
** Step-1 ++++++++++++++++++++++++++++++++++++++++++++++++++
**
*Step
*Static
**
** Boundary conditions +++++++++++++++++++++++++++++++++++++
**
*Boundary, op=New
** Name: Displacement_rotation-1
*Boundary, Fixed
fixedge, 1, 1
fixedge, 2, 2
fixedge, 3, 3
**
** Loads +++++++++++++++++++++++++++++++++++++++++++++++++++
**
*Dload, op=New
*Cload, op=New
** Name: Surface_traction-1
*Cload
26, 3, 0.494244488893753
6, 3, 0.24712224443958
97, 3, 0.988488977758319
25, 3, 0.494244488893753
96, 3, 0.988488977816695
5, 3, 0.24712224443958
95, 3, 0.988488977758319
**
** History outputs +++++++++++++++++++++++++++++++++++++++++
**
**
** Field outputs +++++++++++++++++++++++++++++++++++++++++++
**
*Node file
RF, U
*El file
S, E
**
** End step ++++++++++++++++++++++++++++++++++++++++++++++++
**
*End step
