**
** Heading +++++++++++++++++++++++++++++++++++++++++++++++++
**
*Heading
Hash: PXJD0WWr, Date: 03/11/2021, Unit system: MM_TON_S_C
**
** Nodes +++++++++++++++++++++++++++++++++++++++++++++++++++
**
*Node
756, 1.20000000E+001, 4.80000000E+001, 0.00000000E+000
776, 0.00000000E+000, 5.50000000E+000, 5.00000000E+000
770, 0.00000000E+000, 1.10000000E+001, 0.00000000E+000
784, 4.20000000E+001, 4.33750000E+001, 0.00000000E+000
859, 2.40000000E+001, 4.82500000E+001, 5.00000000E+000
850, 1.80000000E+001, 3.74375000E+001, 5.00000000E+000
734, 4.20000000E+001, 3.85000000E+001, 5.00000000E+000
727, 4.20000000E+001, 3.85000000E+001, 0.00000000E+000
724, 4.80000000E+001, 6.00000000E+001, 5.00000000E+000
773, 0.00000000E+000, 2.75000000E+001, 0.00000000E+000
779, 0.00000000E+000, 2.20000000E+001, 5.00000000E+000
780, 0.00000000E+000, 2.75000000E+001, 5.00000000E+000
730, 2.40000000E+001, 2.20000000E+001, 0.00000000E+000
847, 1.80000000E+001, 2.48750000E+001, 5.00000000E+000
775, 0.00000000E+000, 3.85000000E+001, 0.00000000E+000
748, 4.80000000E+001, 5.80000000E+001, 5.00000000E+000
752, 4.80000000E+001, 5.00000000E+001, 5.00000000E+000
844, 1.20000000E+001, 3.87500000E+001, 5.00000000E+000
732, 1.20000000E+001, 1.10000000E+001, 0.00000000E+000
769, 0.00000000E+000, 5.50000000E+000, 0.00000000E+000
** ... 142 like lines cut
**
** Elements ++++++++++++++++++++++++++++++++++++++++++++++++
**
*Element, Type=C3D8, Elset=Solid_part-1
568, 720, 719, 727, 734, 754, 747, 783, 874
569, 754, 747, 783, 874, 753, 746, 784, 875
570, 753, 746, 784, 875, 752, 745, 785, 876
571, 752, 745, 785, 876, 751, 744, 786, 877
572, 751, 744, 786, 877, 750, 743, 787, 878
573, 750, 743, 787, 878, 749, 742, 788, 879
574, 749, 742, 788, 879, 748, 741, 789, 880
575, 748, 741, 789, 880, 724, 723, 761, 768
576, 734, 727, 728, 735, 874, 783, 790, 867
577, 874, 783, 790, 867, 875, 784, 791, 868
578, 875, 784, 791, 868, 876, 785, 792, 869
579, 876, 785, 792, 869, 877, 786, 793, 870
580, 877, 786, 793, 870, 878, 787, 794, 871
581, 878, 787, 794, 871, 879, 788, 795, 872
582, 879, 788, 795, 872, 880, 789, 796, 873
583, 880, 789, 796, 873, 768, 761, 760, 767
584, 735, 728, 729, 736, 867, 790, 797, 860
585, 867, 790, 797, 860, 868, 791, 798, 861
586, 868, 791, 798, 861, 869, 792, 799, 862
587, 869, 792, 799, 862, 870, 793, 800, 863
** ... 44 like lines cut
**
** Node sets +++++++++++++++++++++++++++++++++++++++++++++++
**
*Nset, Nset=BC
721, 722, 725, 726, 769, 770, 771, 772, 773, 774, 775, 776, 777, 778, 779, 780, 
781, 782
*Nset, Nset=Vertex
724
*Nset, Nset=Load
719, 720, 723, 724, 741, 742, 743, 744, 745, 746, 747, 748, 749, 750, 751, 752, 
753, 754
*Nset, Nset=ZSYMM
719, 720, 721, 722, 723, 724, 725, 726, 727, 728, 729, 730, 731, 732, 733, 734, 
735, 736, 737, 738, 739, 740, 741, 742, 743, 744, 745, 746, 747, 748, 749, 750, 
751, 752, 753, 754, 755, 756, 757, 758, 759, 760, 761, 762, 763, 764, 765, 766, 
767, 768, 769, 770, 771, 772, 773, 774, 775, 776, 777, 778, 779, 780, 781, 782, 
783, 784, 785, 786, 787, 788, 789, 790, 791, 792, 793, 794, 795, 796, 797, 798, 
799, 800, 801, 802, 803, 804, 805, 806, 807, 808, 809, 810, 811, 812, 813, 814, 
815, 816, 817, 818, 819, 820, 821, 822, 823, 824, 825, 826, 827, 828, 829, 830, 
831, 832, 833, 834, 835, 836, 837, 838, 839, 840, 841, 842, 843, 844, 845, 846, 
847, 848, 849, 850, 851, 852, 853, 854, 855, 856, 857, 858, 859, 860, 861, 862, 
863, 864, 865, 866, 867, 868, 869, 870, 871, 872, 873, 874, 875, 876, 877, 878, 
879, 880
*Nset, Nset=Internal-1_Internal_Selection-1_Traction
720, 719, 747, 754, 746, 753, 745, 752, 744, 751, 743, 750, 742, 749, 741, 748, 
723, 724
**
** Element sets ++++++++++++++++++++++++++++++++++++++++++++
**
*Elset, Elset=C3D8
568, 569, 570, 571, 572, 573, 574, 575, 576, 577, 578, 579, 580, 581, 582, 583, 
584, 585, 586, 587, 588, 589, 590, 591, 592, 593, 594, 595, 596, 597, 598, 599, 
600, 601, 602, 603, 604, 605, 606, 607, 608, 609, 610, 611, 612, 613, 614, 615, 
616, 617, 618, 619, 620, 621, 622, 623, 624, 625, 626, 627, 628, 629, 630, 631
*Elset, Elset=Internal-1_Internal_Selection-1_Traction_S3
568, 569, 570, 571, 572, 573, 574, 575
**
** Surfaces ++++++++++++++++++++++++++++++++++++++++++++++++
**
*Surface, Name=Internal_Selection-1_Traction, Type=Element
Internal-1_Internal_Selection-1_Traction_S3, S3
**
** Materials +++++++++++++++++++++++++++++++++++++++++++++++
**
** Name: Material-1: Deactivated
*Material, Name=Rubber
*Elastic,
70.0, 0.4999
**
** Sections ++++++++++++++++++++++++++++++++++++++++++++++++
**
*SOLID SECTION, ELSET=Solid_part-1, Material=Rubber
**
** Pre-tension sections ++++++++++++++++++++++++++++++++++++
**
**
** Constraints +++++++++++++++++++++++++++++++++++++++++++++
**
**
** Surface interactions ++++++++++++++++++++++++++++++++++++
**
**
** Contact pairs +++++++++++++++++++++++++++++++++++++++++++
**
**
** Steps +++++++++++++++++++++++++++++++++++++++++++++++++++
**
**
** Step-1 ++++++++++++++++++++++++++++++++++++++++++++++++++
**
*Step
*Static
**
** Boundary conditions +++++++++++++++++++++++++++++++++++++
**
*Boundary, op=New
** Name: Disp_rot-1
*Boundary
BC, 1, 1, 0
BC, 2, 2, 0
BC, 3, 3, 0
** Name: Disp_rot-2
*Boundary
ZSYMM, 3, 3, 0
**
** Loads +++++++++++++++++++++++++++++++++++++++++++++++++++
**
*Dload, op=New
*Cload, op=New
** Name: Traction
*Cload
720, 2, 15.625
754, 2, 31.25
747, 2, 31.25
719, 2, 15.625
753, 2, 31.25
746, 2, 31.25
752, 2, 31.25
745, 2, 31.25
751, 2, 31.25
744, 2, 31.25
750, 2, 31.25
743, 2, 31.25
749, 2, 31.25
742, 2, 31.25
748, 2, 31.25
741, 2, 31.25
724, 2, 15.625
723, 2, 15.625
**
** History outputs +++++++++++++++++++++++++++++++++++++++++
**
*Node print, Nset=Vertex
U
**
** Field outputs +++++++++++++++++++++++++++++++++++++++++++
**
*Node file
RF, U
*El file
S, E
*NODE PRINT, NSET=Vertex,
U2
**
** End step ++++++++++++++++++++++++++++++++++++++++++++++++
**
*End step
