# ------------------------------------------------------------------------------------------
# Impression du contenu du fichier de commandes à exécuter :
# ------------------------------------------------------------------------------------------
DEBUT()


mesh = LIRE_MAILLAGE(FORMAT='MED',
                     UNITE=20,
                     VERI_MAIL=_F())

model = AFFE_MODELE(AFFE=_F(MODELISATION=('3D', ),
                            PHENOMENE='MECANIQUE',
                            TOUT='OUI'),
                    MAILLAGE=mesh)

mater = DEFI_MATERIAU(ELAS=_F(E=207000.0,
                              NU=0.33,
                              RHO=7.298e-09))

fieldmat = AFFE_MATERIAU(AFFE=_F(MATER=(mater, ),
                                 TOUT='OUI'),
                         MAILLAGE=mesh,
                         MODELE=model)

ASSEMBLAGE(CHAM_MATER=fieldmat,
           MATR_ASSE=(_F(MATRICE=CO('MASS'),
                         OPTION='MASS_MECA'),
                      _F(MATRICE=CO('RIGI'),
                         OPTION='RIGI_MECA')),
           MODELE=model,
           NUME_DDL=CO('ndl'))

modes = CALC_MODES(CALC_FREQ=_F(FREQ=(200, 3000.0)),
                   MATR_MASS=MASS,
                   MATR_RIGI=RIGI,
                   OPTION='BANDE',
                   SOLVEUR_MODAL=_F(METHODE='TRI_DIAG',
                                    MODE_RIGIDE='OUI'),
                   TYPE_RESU='DYNAMIQUE')

IMPR_RESU(FORMAT='MED',
          RESU=_F(MAILLAGE=mesh,
                  RESULTAT=modes),
          UNITE=80)

FIN()

# ------------------------------------------------------------------------------------------

  Ouverture en écriture du fichier ./vola.1

 <INFO> Démarrage de l'exécution.
                                                                                
                                                                                
              -- CODE_ASTER -- VERSION : EXPLOITATION (stable) --               
                                                                                
                     Version 14.6.0 modifiée le 11/06/2020                      
                     révision b3490fa3b76c - branche 'v14'                      
                         Copyright EDF R&D 1991 - 2020                          
                                                                                
                    Exécution du : Fri Nov 20 17:44:09 2020                     
                   Nom de la machine : maciej-ThinkPad-T440p                    
                              Architecture : 64bit                              
                          Type de processeur : x86_64                           
Système d'exploitation : Linux-5.4.0-54-generic-x86_64-with-Ubuntu-18.04-bionic 
                        Langue des messages : en (UTF-8)                        
                                                                                
                           Version de Python : 3.6.9                            
                           Version de NumPy : 1.19.4                            
                           Parallélisme MPI : inactif                           
                          Parallélisme OpenMP : actif                           
                        Nombre de processus utilisés : 4                        
                     Version de la librairie HDF5 : 1.10.3                      
                      Version de la librairie MED : 4.0.0                       
                       Librairie MFront : non disponible                        
                     Version de la librairie MUMPS : 5.1.2                      
                        Librairie PETSc : non disponible                        
                     Version de la librairie SCOTCH : 6.0.4                     

                 Mémoire limite pour l'exécution : 10250.00 Mo                  
                   consommée par l'initialisation : 381.83 Mo                   
                  par les objets du jeu de commandes : 3.93 Mo                  
                 reste pour l'allocation dynamique : 9864.25 Mo                 
                Taille limite des fichiers d'échange : 48.00 Go                 
                                                                                

.. __stg1_txt1
  # ------------------------------------------------------------------------------------------
  # Commande No :  0001            Concept de type : -
  # ------------------------------------------------------------------------------------------
  DEBUT(PAR_LOT='OUI',
        IMPR_MACRO='NON',
        DEBUG=_F(JXVERI='NON',
                 SDVERI='NON',
                 JEVEUX='NON',
                 HIST_ETAPE='NON',),
        MESURE_TEMPS=_F(NIVE_DETAIL=1,
                        MOYENNE='NON',),
        MEMOIRE=_F(TAILLE_BLOC=800.0,
                   TAILLE_GROUP_ELEM=1000,),
        RESERVE_CPU=_F(BORNE=900,),
        INFO=1,)


  Valeur initiale du temps CPU maximum =   900 secondes
  Valeur du temps CPU maximum passé aux commandes =   810 secondes
  Réserve CPU prévue = 90 secondes

  Ouverture en écriture du fichier ./glob.1

  Ouverture en écriture du fichier ./vola.1

  Ouverture en lecture du fichier /home/maciej/salome_meca/code_aster/14.6/lib/aster/elem.1

     Nom de la base                          :  ELEMBASE
     Créée avec la version                   :  14.06.00
     Nombre d'enregistrements utilisés       :  43
     Nombre d'enregistrements maximum        :  512
     Longueur d'enregistrement (octets)      :  819200
     Nombre d'identificateurs utilisés       :  123
     Taille maximum du répertoire            :  300
     Pourcentage d'utilisation du répertoire :  41 %

  Ouverture en lecture du fichier /home/maciej/salome_meca/code_aster/14.6/lib/aster/elem.1


     Nom de la base                          :  ELEMBASE
     Nombre d'enregistrements utilisés       :  43
     Nombre d'enregistrements maximum        :  512
     Longueur d'enregistrement (octets)      :  819200
     Nombre total d'accès en lecture         :  60
     Volume des accès en lecture             :         46.88 Mo.
     Nombre total d'accès en écriture        :  0
     Volume des accès en écriture            :          0.00 Mo.
     Nombre d'identificateurs utilisés       :  123
     Taille maximum du répertoire            :  300
     Pourcentage d'utilisation du répertoire :  41 %

  Relecture des catalogues des éléments faite.

  Fin de lecture (durée  0.025819  s.) 
  # Mémoire (Mo) :   430.38 /   422.62 /    44.29 /    22.92 (VmPeak / VmSize / Optimum / Minimum)
  # Fin commande No : 0001   user+syst:        0.03s (syst:        0.03s, elaps:        0.03s)
  # ------------------------------------------------------------------------------------------

.. __stg1_txt6
  # ------------------------------------------------------------------------------------------
  # Commande No :  0002            Concept de type : maillage_sdaster
  # ------------------------------------------------------------------------------------------
  mesh = LIRE_MAILLAGE(FORMAT='MED',
                       VERI_MAIL=_F(VERIF='OUI',
                                    APLAT=1.E-3,),
                       UNITE=20,
                       INFO_MED=1,
                       INFO=1,)

Vérification du maillage.

------------ MAILLAGE mesh     - IMPRESSIONS NIVEAU  1 ------------

VE-20-NOVE-2020 17:44:09                                                        

NOMBRE DE NOEUDS                        2571

NOMBRE DE MAILLES                        340
                              HEXA20                340

NOMBRE DE GROUPES DE NOEUDS                1
                              N_Section                         2571

NOMBRE DE GROUPES DE MAILLES               1
                              EL_Section                         340

--------------------------------------------------------------------------------

  # Mémoire (Mo) :   430.38 /   423.73 /    44.29 /    22.92 (VmPeak / VmSize / Optimum / Minimum)
  # Fin commande No : 0002   user+syst:        0.01s (syst:        0.01s, elaps:        0.00s)
  # ------------------------------------------------------------------------------------------

.. __stg1_txt11
  # ------------------------------------------------------------------------------------------
  # Commande No :  0004            Concept de type : modele_sdaster
  # ------------------------------------------------------------------------------------------
  model = AFFE_MODELE(MAILLAGE=mesh,
                      AFFE=_F(TOUT='OUI',
                              PHENOMENE='MECANIQUE',
                              MODELISATION=('3D', ),),
                      INFO=1,
                      DISTRIBUTION=_F(PARTITIONNEUR='METIS',
                                      METHODE='SOUS_DOMAINE',),
                      VERI_JACOBIEN='OUI',)


Sur les 340 mailles du maillage mesh, on a demandé l'affectation de 340, on a pu en affecter 340
 Modélisation     Type maille  Élément fini     Nombre
 3D               HEXA20       MECA_HEXA20      340
#2      Calculs elementaires et assemblages               CPU (USER+SYST/SYST/ELAPS):      0.01      0.01      0.00
  # Mémoire (Mo) :   457.77 /   457.40 /    44.29 /    34.46 (VmPeak / VmSize / Optimum / Minimum)
  # Fin commande No : 0004   user+syst:        0.03s (syst:        0.02s, elaps:        0.01s)
  # ------------------------------------------------------------------------------------------

.. __stg1_txt15
  # ------------------------------------------------------------------------------------------
  # Commande No :  0005            Concept de type : mater_sdaster
  # ------------------------------------------------------------------------------------------
  mater = DEFI_MATERIAU(ELAS=_F(E=2.07000E5,
                                NU=0.33,
                                RHO=7.298E-09,
                                COEF_AMOR=1.0,),
                        INFO=1,)

Propriétés définies dans le matériau: ELAS.
  # Mémoire (Mo) :   457.77 /   457.40 /    44.29 /    34.46 (VmPeak / VmSize / Optimum / Minimum)
  # Fin commande No : 0005   user+syst:        0.00s (syst:        0.00s, elaps:        0.00s)
  # ------------------------------------------------------------------------------------------

.. __stg1_txt20
  # ------------------------------------------------------------------------------------------
  # Commande No :  0006            Concept de type : cham_mater
  # ------------------------------------------------------------------------------------------
  fieldmat = AFFE_MATERIAU(MAILLAGE=mesh,
                           MODELE=model,
                           AFFE=_F(TOUT='OUI',
                                   MATER=(mater, ),),
                           INFO=1,)

  # Mémoire (Mo) :   457.77 /   457.40 /    44.29 /    34.46 (VmPeak / VmSize / Optimum / Minimum)
  # Fin commande No : 0006   user+syst:        0.02s (syst:        0.02s, elaps:        0.01s)
  # ------------------------------------------------------------------------------------------

.. __stg1_txt28
  # ------------------------------------------------------------------------------------------
  # Commande No :  0007            Concept de type : -
  # ------------------------------------------------------------------------------------------
  ASSEMBLAGE(MODELE=model,
             CHAM_MATER=fieldmat,
             NUME_DDL=CO(ndl),
             MATR_ASSE=(_F(MATRICE=CO(MASS),
                           OPTION='MASS_MECA',),
                        _F(MATRICE=CO(RIGI),
                           OPTION='RIGI_MECA',
                           MODE_FOURIER=0,),
                        ),
             INST=0.0,
             INFO=1,)

#2      Calculs elementaires et assemblages               CPU (USER+SYST/SYST/ELAPS):      0.22      0.10      0.06
  Le système linéaire à résoudre a 7713 degrés de liberté:
   - 7713 sont des degrés de liberté physiques
     (ils sont portés par 2571 noeuds du maillage)
   - 0 sont les couples de paramètres de Lagrange associés
     aux 0 relations linéaires dualisées.
  La matrice est de taille 7713 équations.
  Elle contient 437841 termes non nuls si elle est symétrique et 867969 termes non nuls si elle n'est pas symétrique.
  Soit un taux de remplissage de   1.459 %.
#1      Resolution des systemes lineaires                 CPU (USER+SYST/SYST/ELAPS):      0.16      0.05      0.04
#2      Calculs elementaires et assemblages               CPU (USER+SYST/SYST/ELAPS):      0.06      0.01      0.03
#2      Calculs elementaires et assemblages               CPU (USER+SYST/SYST/ELAPS):      0.04      0.02      0.01
#2      Calculs elementaires et assemblages               CPU (USER+SYST/SYST/ELAPS):      0.09      0.02      0.02
  # Mémoire (Mo) :   480.88 /   479.10 /    56.97 /    43.75 (VmPeak / VmSize / Optimum / Minimum)
  # Fin commande No : 0007   user+syst:        0.61s (syst:        0.22s, elaps:        0.16s)
  # ------------------------------------------------------------------------------------------

.. __stg1_txt36
  # ------------------------------------------------------------------------------------------
  # Commande No :  0013            Concept de type : mode_meca
  # ------------------------------------------------------------------------------------------
  modes = CALC_MODES(TYPE_RESU='DYNAMIQUE',
                     OPTION='BANDE',
                     SOLVEUR_MODAL=_F(METHODE='TRI_DIAG',
                                      MODE_RIGIDE='OUI',
                                      PREC_ORTHO=1.E-12,
                                      NMAX_ITER_ORTHO=5,
                                      PREC_LANCZOS=1.E-08,
                                      NMAX_ITER_QR=30,
                                      APPROCHE='REEL',),
                     MATR_RIGI=RIGI,
                     MATR_MASS=MASS,
                     CALC_FREQ=_F(FREQ=(200, 3000.0),
                                  NMAX_ITER_SHIFT=3,
                                  PREC_SHIFT=0.05,
                                  SEUIL_FREQ=1.E-2,),
                     SOLVEUR=_F(RENUM='AUTO',
                                NPREC=8,
                                ELIM_LAGR='LAGR2',
                                TYPE_RESOL='AUTO',
                                ACCELERATION='AUTO',
                                LOW_RANK_SEUIL=0.0,
                                PRETRAITEMENTS='AUTO',
                                POSTTRAITEMENTS='AUTO',
                                PCENT_PIVOT=20,
                                RESI_RELA=-1.0,
                                GESTION_MEMOIRE='AUTO',
                                METHODE='MUMPS',),
                     VERI_MODE=_F(STOP_ERREUR='OUI',
                                  SEUIL=1.E-06,
                                  PREC_SHIFT=5.E-3,
                                  STURM='GLOBAL',),
                     STOP_BANDE_VIDE='OUI',
                     AMELIORATION='NON',
                     INFO=1,)

  Le nombre total de DDL est       :       7713
  Le nombre de DDL de Lagrange est :          0
  Le nombre de DDL actifs est      :       7713

6 modes de corps rigide ont été détectés.
  L'option choisie est : BANDE
------------------------------------------------------------------------

  Vérification du spectre de fréquences (Méthode de Sturm)

  Nombre de fréquences dans la bande numéro 1 de bornes ( 2.000E+02 , 3.000E+03 ) : 5
------------------------------------------------------------------------

  La valeur minimale en fréquence est :  2.00000E+02
  La valeur maximale en fréquence est :  3.00000E+03
  La valeur de décalage en fréquence est :  2.12603E+03
------------------------------------------------------------------------

      Informations sur le calcul demandé:

  Nombre de modes recherchés  : 5

  La dimension de l'espace réduit est : 0
  Elle est inférieure au nombre de modes, on la prend égale à : 20
------------------------------------------------------------------------
  Les fréquences calculées sont comprises entre :
      Fréquence inférieure :  4.56868E+02
      Fréquence supérieure :  2.88181E+03

  La première fréquence inférieure non retenue est :  0.00000E+00
  La première fréquence supérieure non retenue est :  3.77602E+03
------------------------------------------------------------------------
     Calcul modal : Méthode d'itération simultanée
                    Méthode de Lanczos

numéro    fréquence (HZ)     norme d'erreur    ITER_QR
    7      4.56868E+02        6.62080E-09        4
    8      6.99600E+02        2.40345E-09        4
    9      1.75148E+03        3.27400E-10        4
   10      1.89323E+03        3.15923E-10        4
   11      2.88181E+03        2.16484E-10        4

  Norme d'erreur moyenne   :  1.97681E-09
------------------------------------------------------------------------

         Vérification à posteriori des modes

  Dans l'intervalle ( 3.23055E+02 , 3.35880E+03 ) il y a bien 5 fréquence(s).
------------------------------------------------------------------------

#1      Resolution des systemes lineaires                 CPU (USER+SYST/SYST/ELAPS):      2.74      0.86      0.76
  # Mémoire (Mo) :   593.91 /   539.37 /    75.88 /    43.75 (VmPeak / VmSize / Optimum / Minimum)
  # Fin commande No : 0013   user+syst:        3.46s (syst:        1.00s, elaps:        1.12s)
  # ------------------------------------------------------------------------------------------

.. __stg1_txt41
  # ------------------------------------------------------------------------------------------
  # Commande No :  0015            Concept de type : -
  # ------------------------------------------------------------------------------------------
  IMPR_RESU(FORMAT='MED',
            UNITE=80,
            VERSION_MED='3.3.1',
            RESU=_F(MAILLAGE=mesh,
                    RESULTAT=modes,
                    INFO_MAILLAGE='NON',
                    IMPR_NOM_VARI='OUI',),
            PROC0='OUI',
            INFO=1,)


Création du fichier au format MED 3.3.1.
  # Mémoire (Mo) :   593.91 /   539.37 /    75.88 /    43.75 (VmPeak / VmSize / Optimum / Minimum)
  # Fin commande No : 0015   user+syst:        0.09s (syst:        0.03s, elaps:        0.03s)
  # ------------------------------------------------------------------------------------------

.. __stg1_txt43
  # ------------------------------------------------------------------------------------------
  # Commande No :  0016            Concept de type : -
  # ------------------------------------------------------------------------------------------
  FIN(FORMAT_HDF='NON',
      RETASSAGE='NON',
      INFO_RESU='OUI',
      PROC0='OUI',
      )

   
   !-------------------------------------------------------------------------!
   ! <I> <CATAMESS_89>                                                       !
   !                                                                         !
   !     Liste des alarmes émises lors de l'exécution du calcul.             !
   !                                                                         !
   !     Les alarmes que vous avez choisies d'ignorer sont précédées de (*). !
   !     Nombre d'occurrences pour chacune des alarmes :                     !
   !            aucune alarme                                                !
   !-------------------------------------------------------------------------!
   

 ======>

 STRUCTURE DU CONCEPT modes    CALCULE POUR          5 NUMEROS D'ORDRE

 LISTE DES NOMS SYMBOLIQUES:
 ! ---------- !----------------!
 ! NUME_ORDRE !      DEPL      !
 ! ---------- !----------------!
 !          1 !     DEPL_R     !
 !        ... !      ...       !
 !          5 !     DEPL_R     !
 ! ---------- !----------------!

 LISTE DES NOMS DE VARIABLES D'ACCES:
                                      FREQ             DE TYPE  R
                                      NUME_MODE        DE TYPE  I
                                      NOEUD_CMP        DE TYPE  K16

 LISTE DES NOMS DE PARAMETRES:
 ! ---------- !----------------!----------------!----------------!----------------!----------------!----------------!----------------!----------------!----------------!----------------!----------------!----------------!----------------!----------------!----------------!----------------!----------------!----------------!----------------!
 ! NUME_ORDRE !   AMOR_GENE    !  AMOR_REDUIT   !    CARAELEM    !    CHAMPMAT    !     EXCIT      !FACT_PARTICI_DX !FACT_PARTICI_DY !FACT_PARTICI_DZ !  MASS_EFFE_DX  !  MASS_EFFE_DY  !  MASS_EFFE_DZ  !   MASS_GENE    !     MODELE     !     NORME      !    NUME_DDL    !     OMEGA2     !   RIGI_GENE    !   TYPE_DEFO    !   TYPE_MODE    !
 ! ---------- !----------------!----------------!----------------!----------------!----------------!----------------!----------------!----------------!----------------!----------------!----------------!----------------!----------------!----------------!----------------!----------------!----------------!----------------!----------------!
 !          1 !       R        !       R        !       K8       !       K8       !      K24       !       R        !       R        !       R        !       R        !       R        !       R        !       R        !       K8       !      K24       !       I        !       R        !       R        !      K16       !      K16       !
 !        ... !      ...       !      ...       !      ...       !      ...       !      ...       !      ...       !      ...       !      ...       !      ...       !      ...       !      ...       !      ...       !      ...       !      ...       !      ...       !      ...       !      ...       !      ...       !      ...       !
 !          5 !       R        !       R        !       K8       !       K8       !      K24       !       R        !       R        !       R        !       R        !       R        !       R        !       R        !       K8       !      K24       !       I        !       R        !       R        !      K16       !      K16       !
 ! ---------- !----------------!----------------!----------------!----------------!----------------!----------------!----------------!----------------!----------------!----------------!----------------!----------------!----------------!----------------!----------------!----------------!----------------!----------------!----------------!
 ---------------------------------------------------------------------------
 Concepts de la base: G
    Nom       Type                 Taille (Mo)         Nombre      Nombre de
                                                     d'objets       segments
    TOTAL                                57.06            180            315
  
    mesh       MAILLAGE_SDASTER           0.20             36             59
    model      MODELE_SDASTER             0.11              8             13
    mater      MATER_SDASTER              0.00              5              5
    fieldmat   CHAM_MATER                 0.00              6             11
    _9000000   MATR_ELEM_DEPL_R           4.75              6             15
    ndl        NUME_DDL_SDASTER           6.28             31             36
    RIGI       MATR_ASSE_DEPL_R           6.68              4             10
    _9000001   MATR_ELEM_DEPL_R           4.75              6             15
    MASS       MATR_ASSE_DEPL_R           6.68              4             10
    modes      MODE_MECA                  0.32             29             35
    &FOZERO                               0.00              2              2
    &&_NUM_C                              0.00              1              1
    &CATA.AC                              0.00              2              4
    &CATA.CL                              0.60              1              3
    &CATA.GD                              0.14              4             11
    &CATA.ME                              0.20              2              4
    &CATA.OP                              0.30              4             19
    &CATA.PH                              0.00              1              1
    &CATA.PR                              0.00              2              4
    &CATA.TE                             26.03             17             42
    &CATA.TH                              0.01              2              4
    &CATA.TM                              0.01              7             11
 ---------------------------------------------------------------------------


     Nom de la base                          :  GLOBALE
     Nombre d'enregistrements utilisés       :  81
     Nombre d'enregistrements maximum        :  62914
     Longueur d'enregistrement (octets)      :  819200
     Nombre total d'accès en lecture         :  19
     Volume des accès en lecture             :         14.84 Mo.
     Nombre total d'accès en écriture        :  97
     Volume des accès en écriture            :         75.78 Mo.
     Nombre d'identificateurs utilisés       :  331
     Taille maximum du répertoire            :  2000
     Pourcentage d'utilisation du répertoire :  16 %


     Nom de la base                          :  VOLATILE
     Nombre d'enregistrements utilisés       :  8
     Nombre d'enregistrements maximum        :  62914
     Longueur d'enregistrement (octets)      :  819200
     Nombre total d'accès en lecture         :  20
     Volume des accès en lecture             :         15.62 Mo.
     Nombre total d'accès en écriture        :  31
     Volume des accès en écriture            :         24.22 Mo.
     Nombre d'identificateurs utilisés       :  351
     Taille maximum du répertoire            :  2000
     Pourcentage d'utilisation du répertoire :  17 %

 <FIN> Arrêt normal dans "FIN".
 <I> <FIN> ARRET NORMAL DANS "FIN" PAR APPEL A "JEFINI".

 La mémoire demandée au lancement est surestimée, elle est de 10250.00 Mo.
 Le pic mémoire utilisée est de 593.91 Mo.



     Nom de la base                          :  ELEMBASE
     Nombre d'enregistrements utilisés       :  43
     Nombre d'enregistrements maximum        :  512
     Longueur d'enregistrement (octets)      :  819200
     Nombre total d'accès en lecture         :  60
     Volume des accès en lecture             :         46.88 Mo.
     Nombre total d'accès en écriture        :  0
     Volume des accès en écriture            :          0.00 Mo.
     Nombre d'identificateurs utilisés       :  123
     Taille maximum du répertoire            :  300
     Pourcentage d'utilisation du répertoire :  41 %
  
 <I> <FIN> MEMOIRE JEVEUX MINIMALE REQUISE POUR L'EXECUTION :                      43.75 Mo
 <I> <FIN> MEMOIRE JEVEUX OPTIMALE REQUISE POUR L'EXECUTION :                      75.88 Mo
 <I> <FIN> MAXIMUM DE MEMOIRE UTILISEE PAR LE PROCESSUS LORS DE L'EXECUTION :     593.91 Mo
  
 <I>       FERMETURE DES BASES EFFECTUEE
  
   STATISTIQUES CONCERNANT L'ALLOCATION DYNAMIQUE :
     TAILLE CUMULEE MAXIMUM            :                   76  Mo.
     TAILLE CUMULEE LIBEREE            :                   28  Mo.
     NOMBRE TOTAL D'ALLOCATIONS        :                 6436
     NOMBRE TOTAL DE LIBERATIONS       :                 6416
     APPELS AU MECANISME DE LIBERATION :                    0
     TAILLE MEMOIRE CUMULEE RECUPEREE  :                   20  Mo.
     VOLUME DES LECTURES               :                    0  Mo.
     VOLUME DES ECRITURES              :                   23  Mo.
  
   MEMOIRE JEVEUX MINIMALE REQUISE POUR L'EXECUTION :      43.75 Mo
     - IMPOSE DE NOMBREUX ACCES DISQUE
     - RALENTIT LA VITESSE D'EXECUTION
   MEMOIRE JEVEUX OPTIMALE REQUISE POUR L'EXECUTION :      75.88 Mo
     - LIMITE LES ACCES DISQUE
     - AMELIORE LA VITESSE D'EXECUTION
   MAXIMUM DE MEMOIRE UTILISEE PAR LE PROCESSUS     :     593.91 Mo
     - COMPREND LA MEMOIRE CONSOMMEE PAR  JEVEUX, 
       LE SUPERVISEUR PYTHON, LES LIBRAIRIES EXTERNES
  
 <I>       FIN D'EXECUTION LE : VE-20-NOVE-2020 17:44:10


  <I> Informations sur les temps d'exécution
      Temps cpu user total                    3.29 s
      Temps cpu systeme total                 1.45 s
      Temps elapsed total                     1.71 s
      Temps restant                         808.29 s


  La signature de la base sauvegardée est (à l'adresse 0) :
    29ddb591094d472c9f35a996171421d1429debf8

 ********************************************************************************
 * COMMAND                  :       USER :     SYSTEM :   USER+SYS :    ELAPSED *
 ********************************************************************************
 * init (jdc)               :       0.27 :       0.01 :       0.28 :       0.28 *
 *  . compile               :       0.00 :       0.00 :       0.00 :       0.00 *
 *  . exec_compile          :       0.06 :       0.00 :       0.06 :       0.06 *
 *  . report                :       0.00 :       0.00 :       0.00 :       0.01 *
 *  . build                 :       0.00 :       0.00 :       0.00 :       0.00 *
 * DEBUT                    :       0.00 :       0.03 :       0.03 :       0.03 *
 * LIRE_MAILLAGE            :       0.00 :       0.01 :       0.01 :       0.00 *
 * AFFE_MODELE              :       0.01 :       0.02 :       0.03 :       0.01 *
 * DEFI_MATERIAU            :       0.00 :       0.00 :       0.00 :       0.00 *
 * AFFE_MATERIAU            :       0.00 :       0.02 :       0.02 :       0.01 *
 * ASSEMBLAGE               :       0.39 :       0.22 :       0.61 :       0.16 *
 * CALC_MODES               :       2.46 :       1.00 :       3.46 :       1.12 *
 * IMPR_RESU                :       0.06 :       0.03 :       0.09 :       0.03 *
 * FIN                      :       0.12 :       0.12 :       0.24 :       0.05 *
 *  . part Superviseur      :       0.31 :       0.06 :       0.37 :       0.34 *
 *  . part Fortran          :       3.01 :       1.41 :       4.42 :       1.38 *
 ********************************************************************************
 * TOTAL_JOB                :       3.29 :       1.45 :       4.74 :       1.71 *
 ********************************************************************************

EXECUTION_CODE_ASTER_EXIT_21141-maciej-ThinkPad-T440p=0
