**
** Heading +++++++++++++++++++++++++++++++++++++++++++++++++
**
*Heading
Hash: 14U2wvCl, Date: 05/19/2021, Unit system: M_KG_S_C
**
** Nodes +++++++++++++++++++++++++++++++++++++++++++++++++++
**
*Node
161, 2.72405404E-001, 1.27024726E-001, 2.25777778E-001
186, 7.46468328E-001, 6.11648774E-001, 4.51555556E-001
157, 6.17492920E-002, 5.40236303E-003, 2.25777778E-001
177, 3.40600574E-001, 2.31002979E-001, 4.51555556E-001
55, 1.71160750E+000, 6.94355759E-001, 0.00000000E+000
105, 2.03850550E+000, 5.14823973E-001, 5.08000000E-001
166, 2.72405404E-001, 1.27024726E-001, 1.69333333E-001
171, 2.72405404E-001, 1.27024726E-001, 1.12888889E-001
176, 2.72405404E-001, 1.27024726E-001, 5.64444444E-002
185, 6.92919591E-001, 5.79577197E-001, 4.51555556E-001
160, 2.28575274E-001, 8.31945960E-002, 2.25777778E-001
159, 1.77800000E-001, 4.76413664E-002, 2.25777778E-001
158, 1.21622363E-001, 2.14453040E-002, 2.25777778E-001
162, 6.17492920E-002, 5.40236303E-003, 1.69333333E-001
167, 6.17492920E-002, 5.40236303E-003, 1.12888889E-001
172, 6.17492920E-002, 5.40236303E-003, 5.64444444E-002
178, 3.76037135E-001, 2.82386860E-001, 4.51555556E-001
183, 5.91337231E-001, 5.07091904E-001, 4.51555556E-001
181, 4.98065094E-001, 4.24185920E-001, 4.51555556E-001
179, 4.14167185E-001, 3.31804999E-001, 4.51555556E-001
** ... 540 like lines cut
**
** Elements ++++++++++++++++++++++++++++++++++++++++++++++++
**
*Element, Type=S4, Elset=Shell_part-1
1, 2, 14, 137, 28
2, 28, 137, 138, 29
3, 29, 138, 139, 30
4, 30, 139, 140, 31
5, 31, 140, 141, 32
6, 32, 141, 27, 4
7, 14, 13, 142, 137
8, 137, 142, 143, 138
9, 138, 143, 144, 139
10, 139, 144, 145, 140
11, 140, 145, 146, 141
12, 141, 146, 26, 27
13, 13, 12, 147, 142
14, 142, 147, 148, 143
15, 143, 148, 149, 144
16, 144, 149, 150, 145
17, 145, 150, 151, 146
18, 146, 151, 25, 26
19, 12, 11, 152, 147
20, 147, 152, 153, 148
** ... 475 like lines cut
**
** Node sets +++++++++++++++++++++++++++++++++++++++++++++++
**
*Nset, Nset=fixedge
1, 2, 7, 8, 9, 10, 11, 12, 13, 14
*Nset, Nset=load
5, 6, 81, 82, 83, 84, 85, 86, 87, 88
*Nset, Nset=main
1, 2, 3, 4, 5, 6, 7, 8, 9, 10, 11, 12, 13, 14, 15, 16, 
17, 18, 19, 20, 21, 22, 23, 24, 25, 26, 27, 28, 29, 30, 31, 32, 
33, 34, 35, 36, 37, 38, 39, 40, 41, 42, 43, 44, 45, 46, 47, 48, 
49, 50, 51, 52, 53, 54, 55, 56, 57, 58, 59, 60, 61, 62, 63, 64, 
65, 66, 67, 68, 69, 70, 71, 72, 73, 74, 75, 76, 77, 78, 79, 80, 
81, 82, 83, 84, 85, 86, 87, 88, 89, 90, 91, 92, 93, 94, 95, 96, 
97, 98, 99, 100, 101, 102, 103, 104, 105, 106, 107, 108, 109, 110, 111, 112, 
113, 114, 115, 116, 117, 118, 119, 120, 121, 122, 123, 124, 125, 126, 127, 128, 
129, 130, 131, 132, 133, 134, 135, 136, 137, 138, 139, 140, 141, 142, 143, 144, 
145, 146, 147, 148, 149, 150, 151, 152, 153, 154, 155, 156, 157, 158, 159, 160, 
161, 162, 163, 164, 165, 166, 167, 168, 169, 170, 171, 172, 173, 174, 175, 176, 
177, 178, 179, 180, 181, 182, 183, 184, 185, 186, 187, 188, 189, 190, 191, 192, 
193, 194, 195, 196, 197, 198, 199, 200, 201, 202, 203, 204, 205, 206, 207, 208, 
209, 210, 211, 212, 213, 214, 215, 216, 217, 218, 219, 220, 221, 222, 223, 224, 
225, 226, 227, 228, 229, 230, 231, 232, 233, 234, 235, 236, 237, 238, 239, 240, 
241, 242, 243, 244, 245, 246, 247, 248, 249, 250, 251, 252, 253, 254, 255, 256, 
257, 258, 259, 260, 261, 262, 263, 264, 265, 266, 267, 268, 269, 270, 271, 272, 
273, 274, 275, 276, 277, 278, 279, 280, 281, 282, 283, 284, 285, 286, 287, 288, 
289, 290, 291, 292, 293, 294, 295, 296, 297, 298, 299, 300, 301, 302, 303, 304, 
305, 306, 307, 308, 309, 310, 311, 312, 313, 314, 315, 316, 317, 318, 319, 320, 
** ... 15 like lines cut

*Nset, Nset=Disp
6
*Nset, Nset=Internal-1_Internal_Selection-1_Surface_traction-1
88, 6, 87, 86, 85, 84, 83, 82, 81, 5
**
** Element sets ++++++++++++++++++++++++++++++++++++++++++++
**
*Elset, Elset=S4
1, 2, 3, 4, 5, 6, 7, 8, 9, 10, 11, 12, 13, 14, 15, 16, 
17, 18, 19, 20, 21, 22, 23, 24, 25, 26, 27, 28, 29, 30, 31, 32, 
33, 34, 35, 36, 37, 38, 39, 40, 41, 42, 43, 44, 45, 46, 47, 48, 
49, 50, 51, 52, 53, 54, 55, 56, 57, 58, 59, 60, 61, 62, 63, 64, 
65, 66, 67, 68, 69, 70, 71, 72, 73, 74, 75, 76, 77, 78, 79, 80, 
81, 82, 83, 84, 85, 86, 87, 88, 89, 90, 91, 92, 93, 94, 95, 96, 
97, 98, 99, 100, 101, 102, 103, 104, 105, 106, 107, 108, 109, 110, 111, 112, 
113, 114, 115, 116, 117, 118, 119, 120, 121, 122, 123, 124, 125, 126, 127, 128, 
129, 130, 131, 132, 133, 134, 135, 136, 137, 138, 139, 140, 141, 142, 143, 144, 
145, 146, 147, 148, 149, 150, 151, 152, 153, 154, 155, 156, 157, 158, 159, 160, 
161, 162, 163, 164, 165, 166, 167, 168, 169, 170, 171, 172, 173, 174, 175, 176, 
177, 178, 179, 180, 181, 182, 183, 184, 185, 186, 187, 188, 189, 190, 191, 192, 
193, 194, 195, 196, 197, 198, 199, 200, 201, 202, 203, 204, 205, 206, 207, 208, 
209, 210, 211, 212, 213, 214, 215, 216, 217, 218, 219, 220, 221, 222, 223, 224, 
225, 226, 227, 228, 229, 230, 231, 232, 233, 234, 235, 236, 237, 238, 239, 240, 
241, 242, 243, 244, 245, 246, 247, 248, 249, 250, 251, 252, 253, 254, 255, 256, 
257, 258, 259, 260, 261, 262, 263, 264, 265, 266, 267, 268, 269, 270, 271, 272, 
273, 274, 275, 276, 277, 278, 279, 280, 281, 282, 283, 284, 285, 286, 287, 288, 
289, 290, 291, 292, 293, 294, 295, 296, 297, 298, 299, 300, 301, 302, 303, 304, 
305, 306, 307, 308, 309, 310, 311, 312, 313, 314, 315, 316, 317, 318, 319, 320, 
** ... 11 like lines cut
*Elset, Elset=main
1, 2, 3, 4, 5, 6, 7, 8, 9, 10, 11, 12, 13, 14, 15, 16, 
17, 18, 19, 20, 21, 22, 23, 24, 25, 26, 27, 28, 29, 30, 31, 32, 
33, 34, 35, 36, 37, 38, 39, 40, 41, 42, 43, 44, 45, 46, 47, 48, 
49, 50, 51, 52, 53, 54, 55, 56, 57, 58, 59, 60, 61, 62, 63, 64, 
65, 66, 67, 68, 69, 70, 71, 72, 73, 74, 75, 76, 77, 78, 79, 80, 
81, 82, 83, 84, 85, 86, 87, 88, 89, 90, 91, 92, 93, 94, 95, 96, 
97, 98, 99, 100, 101, 102, 103, 104, 105, 106, 107, 108, 109, 110, 111, 112, 
113, 114, 115, 116, 117, 118, 119, 120, 121, 122, 123, 124, 125, 126, 127, 128, 
129, 130, 131, 132, 133, 134, 135, 136, 137, 138, 139, 140, 141, 142, 143, 144, 
145, 146, 147, 148, 149, 150, 151, 152, 153, 154, 155, 156, 157, 158, 159, 160, 
161, 162, 163, 164, 165, 166, 167, 168, 169, 170, 171, 172, 173, 174, 175, 176, 
177, 178, 179, 180, 181, 182, 183, 184, 185, 186, 187, 188, 189, 190, 191, 192, 
193, 194, 195, 196, 197, 198, 199, 200, 201, 202, 203, 204, 205, 206, 207, 208, 
209, 210, 211, 212, 213, 214, 215, 216, 217, 218, 219, 220, 221, 222, 223, 224, 
225, 226, 227, 228, 229, 230, 231, 232, 233, 234, 235, 236, 237, 238, 239, 240, 
241, 242, 243, 244, 245, 246, 247, 248, 249, 250, 251, 252, 253, 254, 255, 256, 
257, 258, 259, 260, 261, 262, 263, 264, 265, 266, 267, 268, 269, 270, 271, 272, 
273, 274, 275, 276, 277, 278, 279, 280, 281, 282, 283, 284, 285, 286, 287, 288, 
289, 290, 291, 292, 293, 294, 295, 296, 297, 298, 299, 300, 301, 302, 303, 304, 
305, 306, 307, 308, 309, 310, 311, 312, 313, 314, 315, 316, 317, 318, 319, 320, 
** ... 11 like lines cut
*Elset, Elset=Internal-1_Internal_Selection-1_Surface_traction-1_S5
103, 152, 201, 250, 299, 348, 397, 446, 495
**
** Surfaces ++++++++++++++++++++++++++++++++++++++++++++++++
**
*Surface, Name=Surface-1, Type=Node
load
*Surface, Name=Internal_Selection-1_Surface_traction-1, Type=Element
Internal-1_Internal_Selection-1_Surface_traction-1_S5, S5
**
** Materials +++++++++++++++++++++++++++++++++++++++++++++++
**
*Material, Name=Material-1
*Elastic
22770000, 0.35
**
** Sections ++++++++++++++++++++++++++++++++++++++++++++++++
**
*Shell section, Elset=S4, Material=Material-1, Offset=0
0.0508
**
** Pre-tension sections ++++++++++++++++++++++++++++++++++++
**
**
** Constraints +++++++++++++++++++++++++++++++++++++++++++++
**
**
** Surface interactions ++++++++++++++++++++++++++++++++++++
**
**
** Contact pairs +++++++++++++++++++++++++++++++++++++++++++
**
**
** Steps +++++++++++++++++++++++++++++++++++++++++++++++++++
**
**
** Step-1 ++++++++++++++++++++++++++++++++++++++++++++++++++
**
*Step
*Static
**
** Boundary conditions +++++++++++++++++++++++++++++++++++++
**
*Boundary, op=New
** Name: Displacement_rotation-1
*Boundary, Fixed
fixedge, 1, 1
fixedge, 2, 2
fixedge, 3, 3
**
** Loads +++++++++++++++++++++++++++++++++++++++++++++++++++
**
*Dload, op=New
*Cload, op=New
** Name: Surface_traction-1
*Cload
88, 3, 0.494244488893753
6, 3, 0.247122244424986
87, 3, 0.494244488893753
86, 3, 0.494244488893754
85, 3, 0.494244488893754
84, 3, 0.494244488893753
83, 3, 0.494244488893754
82, 3, 0.494244488876241
81, 3, 0.494244488893754
5, 3, 0.247122244442499
**
** History outputs +++++++++++++++++++++++++++++++++++++++++
**
*Node print, Nset=Disp, Totals=Yes
U
**
** Field outputs +++++++++++++++++++++++++++++++++++++++++++
**
*Node file
RF, U
*El file
S, E
**
** End step ++++++++++++++++++++++++++++++++++++++++++++++++
**
*End step
