**
** Heading +++++++++++++++++++++++++++++++++++++++++++++++++
**
*Heading
Hash: 14U2wvCl, Date: 05/19/2021, Unit system: M_KG_S_C
**
** Nodes +++++++++++++++++++++++++++++++++++++++++++++++++++
**
*Node
606, 1.56504780E+000, 7.35976129E-001, 2.54000000E-001
543, 4.07379652E-001, 3.23398750E-001, 4.57200000E-001
432, 2.20980738E+000, 3.50624348E-001, 2.54000000E-001
588, 2.31358056E+000, 2.08094838E-001, 3.55600000E-001
573, 7.66450595E-001, 6.22647063E-001, 3.55600000E-001
558, 1.99319805E+000, 5.48442513E-001, 4.57200000E-001
651, 7.66450595E-001, 6.22647063E-001, 5.08000000E-002
654, 1.09765145E+000, 7.40682599E-001, 5.08000000E-002
471, 1.62222689E+000, 7.22187735E-001, 1.52400000E-001
639, 2.24677676E+000, 3.04876854E-001, 1.52400000E-001
114, 5.27576246E-001, 4.52380585E-001, 3.04800000E-001
636, 1.99319805E+000, 5.48442513E-001, 1.52400000E-001
528, 2.16475564E-001, 7.34835522E-002, 3.55600000E-001
387, 2.39472670E+000, 5.15737870E-002, 3.55600000E-001
516, 2.28139706E+000, 2.57326850E-001, 5.08000000E-002
624, 6.65811640E-001, 5.61808693E-001, 1.52400000E-001
531, 1.36082229E-001, 2.70684382E-002, 2.54000000E-001
129, 2.12920185E+000, 4.36252939E-001, 3.04800000E-001
75, 9.20360524E-002, 1.21167762E-002, 4.06400000E-001
594, 3.38640491E-001, 2.27981591E-001, 2.54000000E-001
** ... 651 like lines cut
**
** Elements ++++++++++++++++++++++++++++++++++++++++++++++++
**
*Element, Type=S6, Elset=Shell_part-1
1, 76, 19, 18, 265, 202, 523
2, 77, 20, 19, 267, 203, 524
3, 17, 4, 20, 200, 204, 525
4, 78, 75, 10, 270, 262, 526
5, 79, 76, 75, 272, 264, 527
6, 80, 77, 76, 274, 266, 528
7, 16, 17, 77, 199, 268, 529
8, 81, 78, 9, 277, 269, 530
9, 82, 79, 78, 279, 271, 531
10, 83, 80, 79, 281, 273, 532
11, 15, 16, 80, 198, 275, 533
12, 84, 81, 8, 284, 276, 534
13, 85, 82, 81, 286, 278, 535
14, 86, 83, 82, 288, 280, 536
15, 14, 15, 83, 197, 282, 537
16, 11, 84, 7, 290, 283, 538
17, 12, 85, 84, 291, 285, 539
18, 13, 86, 85, 292, 287, 540
19, 3, 14, 86, 196, 289, 541
20, 87, 74, 4, 294, 261, 542
** ... 280 like lines cut
**
** Node sets +++++++++++++++++++++++++++++++++++++++++++++++
**
*Nset, Nset=fixedge
1, 2, 7, 8, 9, 10, 187, 188, 189, 190, 191
*Nset, Nset=load
5, 6, 46, 47, 48, 49, 231, 232, 233, 234, 235
*Nset, Nset=main
1, 2, 3, 4, 5, 6, 7, 8, 9, 10, 11, 12, 13, 14, 15, 16, 
17, 18, 19, 20, 21, 22, 23, 24, 25, 26, 27, 28, 29, 30, 31, 32, 
33, 34, 35, 36, 37, 38, 39, 40, 41, 42, 43, 44, 45, 46, 47, 48, 
49, 50, 51, 52, 53, 54, 55, 56, 57, 58, 59, 60, 61, 62, 63, 64, 
65, 66, 67, 68, 69, 70, 71, 72, 73, 74, 75, 76, 77, 78, 79, 80, 
81, 82, 83, 84, 85, 86, 87, 88, 89, 90, 91, 92, 93, 94, 95, 96, 
97, 98, 99, 100, 101, 102, 103, 104, 105, 106, 107, 108, 109, 110, 111, 112, 
113, 114, 115, 116, 117, 118, 119, 120, 121, 122, 123, 124, 125, 126, 127, 128, 
129, 130, 131, 132, 133, 134, 135, 136, 137, 138, 139, 140, 141, 142, 143, 144, 
145, 146, 147, 148, 149, 150, 151, 152, 153, 154, 155, 156, 157, 158, 159, 160, 
161, 162, 163, 164, 165, 166, 167, 168, 169, 170, 171, 172, 173, 174, 175, 176, 
177, 178, 179, 180, 181, 182, 183, 184, 185, 186, 187, 188, 189, 190, 191, 192, 
193, 194, 195, 196, 197, 198, 199, 200, 201, 202, 203, 204, 205, 206, 207, 208, 
209, 210, 211, 212, 213, 214, 215, 216, 217, 218, 219, 220, 221, 222, 223, 224, 
225, 226, 227, 228, 229, 230, 231, 232, 233, 234, 235, 236, 237, 238, 239, 240, 
241, 242, 243, 244, 245, 246, 247, 248, 249, 250, 251, 252, 253, 254, 255, 256, 
257, 258, 259, 260, 261, 262, 263, 264, 265, 266, 267, 268, 269, 270, 271, 272, 
273, 274, 275, 276, 277, 278, 279, 280, 281, 282, 283, 284, 285, 286, 287, 288, 
289, 290, 291, 292, 293, 294, 295, 296, 297, 298, 299, 300, 301, 302, 303, 304, 
305, 306, 307, 308, 309, 310, 311, 312, 313, 314, 315, 316, 317, 318, 319, 320, 
** ... 22 like lines cut
*Nset, Nset=Disp
6
*Nset, Nset=Internal-1_Internal_Selection-1_Surface_traction-1
49, 6, 235, 48, 234, 47, 233, 46, 232, 5, 231
**
** Element sets ++++++++++++++++++++++++++++++++++++++++++++
**
*Elset, Elset=S6
1, 2, 3, 4, 5, 6, 7, 8, 9, 10, 11, 12, 13, 14, 15, 16, 
17, 18, 19, 20, 21, 22, 23, 24, 25, 26, 27, 28, 29, 30, 31, 32, 
33, 34, 35, 36, 37, 38, 39, 40, 41, 42, 43, 44, 45, 46, 47, 48, 
49, 50, 51, 52, 53, 54, 55, 56, 57, 58, 59, 60, 61, 62, 63, 64, 
65, 66, 67, 68, 69, 70, 71, 72, 73, 74, 75, 76, 77, 78, 79, 80, 
81, 82, 83, 84, 85, 86, 87, 88, 89, 90, 91, 92, 93, 94, 95, 96, 
97, 98, 99, 100, 101, 102, 103, 104, 105, 106, 107, 108, 109, 110, 111, 112, 
113, 114, 115, 116, 117, 118, 119, 120, 121, 122, 123, 124, 125, 126, 127, 128, 
129, 130, 131, 132, 133, 134, 135, 136, 137, 138, 139, 140, 141, 142, 143, 144, 
145, 146, 147, 148, 149, 150, 151, 152, 153, 154, 155, 156, 157, 158, 159, 160, 
161, 162, 163, 164, 165, 166, 167, 168, 169, 170, 171, 172, 173, 174, 175, 176, 
177, 178, 179, 180, 181, 182, 183, 184, 185, 186, 187, 188, 189, 190, 191, 192, 
193, 194, 195, 196, 197, 198, 199, 200, 201, 202, 203, 204, 205, 206, 207, 208, 
209, 210, 211, 212, 213, 214, 215, 216, 217, 218, 219, 220, 221, 222, 223, 224, 
225, 226, 227, 228, 229, 230, 231, 232, 233, 234, 235, 236, 237, 238, 239, 240, 
241, 242, 243, 244, 245, 246, 247, 248, 249, 250, 251, 252, 253, 254, 255, 256, 
257, 258, 259, 260, 261, 262, 263, 264, 265, 266, 267, 268, 269, 270, 271, 272, 
273, 274, 275, 276, 277, 278, 279, 280, 281, 282, 283, 284, 285, 286, 287, 288, 
289, 290, 291, 292, 293, 294, 295, 296, 297, 298, 299, 300
*Elset, Elset=main
1, 2, 3, 4, 5, 6, 7, 8, 9, 10, 11, 12, 13, 14, 15, 16, 
17, 18, 19, 20, 21, 22, 23, 24, 25, 26, 27, 28, 29, 30, 31, 32, 
33, 34, 35, 36, 37, 38, 39, 40, 41, 42, 43, 44, 45, 46, 47, 48, 
49, 50, 51, 52, 53, 54, 55, 56, 57, 58, 59, 60, 61, 62, 63, 64, 
65, 66, 67, 68, 69, 70, 71, 72, 73, 74, 75, 76, 77, 78, 79, 80, 
81, 82, 83, 84, 85, 86, 87, 88, 89, 90, 91, 92, 93, 94, 95, 96, 
97, 98, 99, 100, 101, 102, 103, 104, 105, 106, 107, 108, 109, 110, 111, 112, 
113, 114, 115, 116, 117, 118, 119, 120, 121, 122, 123, 124, 125, 126, 127, 128, 
129, 130, 131, 132, 133, 134, 135, 136, 137, 138, 139, 140, 141, 142, 143, 144, 
145, 146, 147, 148, 149, 150, 151, 152, 153, 154, 155, 156, 157, 158, 159, 160, 
161, 162, 163, 164, 165, 166, 167, 168, 169, 170, 171, 172, 173, 174, 175, 176, 
177, 178, 179, 180, 181, 182, 183, 184, 185, 186, 187, 188, 189, 190, 191, 192, 
193, 194, 195, 196, 197, 198, 199, 200, 201, 202, 203, 204, 205, 206, 207, 208, 
209, 210, 211, 212, 213, 214, 215, 216, 217, 218, 219, 220, 221, 222, 223, 224, 
225, 226, 227, 228, 229, 230, 231, 232, 233, 234, 235, 236, 237, 238, 239, 240, 
241, 242, 243, 244, 245, 246, 247, 248, 249, 250, 251, 252, 253, 254, 255, 256, 
257, 258, 259, 260, 261, 262, 263, 264, 265, 266, 267, 268, 269, 270, 271, 272, 
273, 274, 275, 276, 277, 278, 279, 280, 281, 282, 283, 284, 285, 286, 287, 288, 
289, 290, 291, 292, 293, 294, 295, 296, 297, 298, 299, 300
*Elset, Elset=Internal-1_Internal_Selection-1_Surface_traction-1_S3
45, 71, 97, 123, 149
**
** Surfaces ++++++++++++++++++++++++++++++++++++++++++++++++
**
*Surface, Name=Surface-1, Type=Node
load
*Surface, Name=Internal_Selection-1_Surface_traction-1, Type=Element
Internal-1_Internal_Selection-1_Surface_traction-1_S3, S3
**
** Materials +++++++++++++++++++++++++++++++++++++++++++++++
**
*Material, Name=Material-1
*Elastic
22770000, 0.35
**
** Sections ++++++++++++++++++++++++++++++++++++++++++++++++
**
*Shell section, Elset=S6, Material=Material-1, Offset=0
0.0508
**
** Pre-tension sections ++++++++++++++++++++++++++++++++++++
**
**
** Constraints +++++++++++++++++++++++++++++++++++++++++++++
**
**
** Surface interactions ++++++++++++++++++++++++++++++++++++
**
**
** Contact pairs +++++++++++++++++++++++++++++++++++++++++++
**
**
** Steps +++++++++++++++++++++++++++++++++++++++++++++++++++
**
**
** Step-1 ++++++++++++++++++++++++++++++++++++++++++++++++++
**
*Step
*Static
**
** Boundary conditions +++++++++++++++++++++++++++++++++++++
**
*Boundary, op=New
** Name: Displacement_rotation-1
*Boundary, Fixed
fixedge, 1, 1
fixedge, 2, 2
fixedge, 3, 3
**
** Loads +++++++++++++++++++++++++++++++++++++++++++++++++++
**
*Dload, op=New
*Cload, op=New
** Name: Surface_traction-1
*Cload
49, 3, 0.296546693333333
6, 3, 0.148273346666667
235, 3, 0.593093386666667
48, 3, 0.296546693333333
234, 3, 0.593093386666666
47, 3, 0.296546693333333
233, 3, 0.593093386666667
46, 3, 0.296546693333333
232, 3, 0.593093386666667
5, 3, 0.148273346666667
231, 3, 0.593093386666667
**
** History outputs +++++++++++++++++++++++++++++++++++++++++
**
*Node print, Nset=Disp, Totals=Yes
U
**
** Field outputs +++++++++++++++++++++++++++++++++++++++++++
**
*Node file
RF, U
*El file
S, E
**
** End step ++++++++++++++++++++++++++++++++++++++++++++++++
**
*End step
