**
** Heading +++++++++++++++++++++++++++++++++++++++++++++++++
**
*Heading
Hash: 14U2wvCl, Date: 05/19/2021, Unit system: M_KG_S_C
**
** Nodes +++++++++++++++++++++++++++++++++++++++++++++++++++
**
*Node
33, 1.50724726E+000, 7.46869527E-001, 5.08000000E-001
52, 2.46461011E+000, -1.72689979E-001, 3.38666667E-001
85, 2.20980738E+000, 3.50624348E-001, 0.00000000E+000
48, 1.94429259E+000, 5.81120096E-001, 3.38666667E-001
30, 2.12920185E+000, 4.36252939E-001, 5.08000000E-001
73, 8.89000000E-002, 2.38206832E-002, 5.08000000E-001
36, 8.18938327E-001, 6.49191488E-001, 5.08000000E-001
45, 1.27277599E+000, 7.61052425E-001, 3.38666667E-001
88, 1.62222689E+000, 7.22187735E-001, 0.00000000E+000
7, -6.53226603E-017, 0.00000000E+000, 1.69333333E-001
56, 1.04020629E+000, 7.28048419E-001, 1.69333333E-001
84, 2.34324569E+000, 1.57305580E-001, 0.00000000E+000
90, 1.15565963E+000, 7.50409855E-001, 0.00000000E+000
102, 2.04039705E+000, 5.13345179E-001, 5.08000000E-001
114, 6.17915454E-001, 5.27668925E-001, 4.23333333E-001
126, 1.94429259E+000, 5.81120096E-001, 4.23333333E-001
138, 5.27576246E-001, 4.52380585E-001, 1.69333333E-001
150, 1.84186204E+000, 6.38891109E-001, 1.69333333E-001
165, 1.27277599E+000, 7.61052425E-001, 8.46666667E-002
171, 2.39472670E+000, 5.15737870E-002, 8.46666667E-002
** ... 152 like lines cut
**
** Elements ++++++++++++++++++++++++++++++++++++++++++++++++
**
*Element, Type=S8, Elset=Shell_part-1
1, 2, 8, 39, 12, 67, 75, 76, 73
2, 12, 39, 11, 4, 76, 77, 72, 74
3, 8, 7, 40, 39, 66, 78, 79, 75
4, 39, 40, 10, 11, 79, 80, 71, 77
5, 7, 1, 9, 40, 65, 68, 81, 78
6, 40, 9, 3, 10, 81, 69, 70, 80
7, 4, 11, 41, 38, 72, 111, 112, 110
8, 38, 41, 42, 37, 112, 113, 114, 109
9, 37, 42, 43, 36, 114, 115, 116, 108
10, 36, 43, 44, 35, 116, 117, 118, 107
11, 35, 44, 45, 34, 118, 119, 120, 106
12, 34, 45, 46, 33, 120, 121, 122, 105
13, 33, 46, 47, 32, 122, 123, 124, 104
14, 32, 47, 48, 31, 124, 125, 126, 103
15, 31, 48, 49, 30, 126, 127, 128, 102
16, 30, 49, 50, 29, 128, 129, 130, 101
17, 29, 50, 51, 28, 130, 131, 132, 100
18, 28, 51, 52, 27, 132, 133, 134, 99
19, 27, 52, 26, 6, 134, 135, 97, 98
20, 11, 10, 53, 41, 71, 136, 137, 111
** ... 25 like lines cut
**
** Node sets +++++++++++++++++++++++++++++++++++++++++++++++
**
*Nset, Nset=fixedge
1, 2, 7, 8, 65, 66, 67
*Nset, Nset=load
5, 6, 25, 26, 95, 96, 97
*Nset, Nset=main
1, 2, 3, 4, 5, 6, 7, 8, 9, 10, 11, 12, 13, 14, 15, 16, 
17, 18, 19, 20, 21, 22, 23, 24, 25, 26, 27, 28, 29, 30, 31, 32, 
33, 34, 35, 36, 37, 38, 39, 40, 41, 42, 43, 44, 45, 46, 47, 48, 
49, 50, 51, 52, 53, 54, 55, 56, 57, 58, 59, 60, 61, 62, 63, 64, 
65, 66, 67, 68, 69, 70, 71, 72, 73, 74, 75, 76, 77, 78, 79, 80, 
81, 82, 83, 84, 85, 86, 87, 88, 89, 90, 91, 92, 93, 94, 95, 96, 
97, 98, 99, 100, 101, 102, 103, 104, 105, 106, 107, 108, 109, 110, 111, 112, 
113, 114, 115, 116, 117, 118, 119, 120, 121, 122, 123, 124, 125, 126, 127, 128, 
129, 130, 131, 132, 133, 134, 135, 136, 137, 138, 139, 140, 141, 142, 143, 144, 
145, 146, 147, 148, 149, 150, 151, 152, 153, 154, 155, 156, 157, 158, 159, 160, 
161, 162, 163, 164, 165, 166, 167, 168, 169, 170, 171, 172
*Nset, Nset=Disp
6
*Nset, Nset=Internal-1_Internal_Selection-1_Surface_traction-1
26, 6, 97, 25, 96, 5, 95
**
** Element sets ++++++++++++++++++++++++++++++++++++++++++++
**
*Elset, Elset=S8
1, 2, 3, 4, 5, 6, 7, 8, 9, 10, 11, 12, 13, 14, 15, 16, 
17, 18, 19, 20, 21, 22, 23, 24, 25, 26, 27, 28, 29, 30, 31, 32, 
33, 34, 35, 36, 37, 38, 39, 40, 41, 42, 43, 44, 45
*Elset, Elset=main
1, 2, 3, 4, 5, 6, 7, 8, 9, 10, 11, 12, 13, 14, 15, 16, 
17, 18, 19, 20, 21, 22, 23, 24, 25, 26, 27, 28, 29, 30, 31, 32, 
33, 34, 35, 36, 37, 38, 39, 40, 41, 42, 43, 44, 45
*Elset, Elset=Internal-1_Internal_Selection-1_Surface_traction-1_S5
19, 32, 45
**
** Surfaces ++++++++++++++++++++++++++++++++++++++++++++++++
**
*Surface, Name=Surface-1, Type=Node
load
*Surface, Name=Internal_Selection-1_Surface_traction-1, Type=Element
Internal-1_Internal_Selection-1_Surface_traction-1_S5, S5
**
** Materials +++++++++++++++++++++++++++++++++++++++++++++++
**
*Material, Name=Material-1
*Elastic
22770000, 0.35
**
** Sections ++++++++++++++++++++++++++++++++++++++++++++++++
**
*Shell section, Elset=S8, Material=Material-1, Offset=0
0.0508
**
** Pre-tension sections ++++++++++++++++++++++++++++++++++++
**
**
** Constraints +++++++++++++++++++++++++++++++++++++++++++++
**
**
** Surface interactions ++++++++++++++++++++++++++++++++++++
**
**
** Contact pairs +++++++++++++++++++++++++++++++++++++++++++
**
**
** Steps +++++++++++++++++++++++++++++++++++++++++++++++++++
**
**
** Step-1 ++++++++++++++++++++++++++++++++++++++++++++++++++
**
*Step
*Static
**
** Boundary conditions +++++++++++++++++++++++++++++++++++++
**
*Boundary, op=New
** Name: Displacement_rotation-1
*Boundary, Fixed
fixedge, 1, 1
fixedge, 2, 2
fixedge, 3, 3
**
** Loads +++++++++++++++++++++++++++++++++++++++++++++++++++
**
*Dload, op=New
*Cload, op=New
** Name: Surface_traction-1
*Cload
26, 3, 0.494244488893753
6, 3, 0.24712224443958
97, 3, 0.988488977758319
25, 3, 0.494244488893753
96, 3, 0.988488977816695
5, 3, 0.24712224443958
95, 3, 0.988488977758319
**
** History outputs +++++++++++++++++++++++++++++++++++++++++
**
*Node print, Nset=Disp, Totals=Yes
U
**
** Field outputs +++++++++++++++++++++++++++++++++++++++++++
**
*Node file
RF, U
*El file
S, E
**
** End step ++++++++++++++++++++++++++++++++++++++++++++++++
**
*End step
