**
** Heading +++++++++++++++++++++++++++++++++++++++++++++++++
**
*Heading
Hash: 14U2wvCl, Date: 05/19/2021, Unit system: M_KG_S_C
**
** Nodes +++++++++++++++++++++++++++++++++++++++++++++++++++
**
*Node
412, 2.44677865E+000, -9.79703037E-002, 2.25777778E-001
219, 2.42869945E+000, -3.82275581E-002, 4.51555556E-001
432, 1.09647297E+000, 7.40453719E-001, 1.69333333E-001
276, 4.54881904E-001, 3.79116360E-001, 3.38666667E-001
117, 1.34479113E+000, 7.61733185E-001, 5.08000000E-001
468, 4.54881904E-001, 3.79116360E-001, 1.12888889E-001
377, 6.92919591E-001, 5.79577197E-001, 2.25777778E-001
337, 1.15803715E+000, 7.50744758E-001, 2.82222222E-001
303, 1.98828382E+000, 5.51889262E-001, 3.38666667E-001
225, 3.40600574E-001, 2.31002979E-001, 3.95111111E-001
417, 3.40600574E-001, 2.31002979E-001, 1.69333333E-001
422, 5.43593514E-001, 4.66885055E-001, 1.69333333E-001
427, 8.01653371E-001, 6.40814921E-001, 1.69333333E-001
397, 1.88226602E+000, 6.17717222E-001, 2.25777778E-001
357, 2.25619439E+000, 2.92432344E-001, 2.82222222E-001
322, 3.76037135E-001, 2.82386860E-001, 2.82222222E-001
270, 2.47324591E+000, -2.19923483E-001, 3.95111111E-001
240, 1.09647297E+000, 7.40453719E-001, 3.95111111E-001
252, 1.82677248E+000, 6.46292025E-001, 3.95111111E-001
264, 2.35572534E+000, 1.34029738E-001, 3.95111111E-001
** ... 1594 like lines cut
**
** Elements ++++++++++++++++++++++++++++++++++++++++++++++++
**
*Element, Type=S8R, Elset=Shell_part-1
1, 2, 14, 137, 28, 569, 698, 699, 585
2, 28, 137, 138, 29, 699, 700, 701, 586
3, 29, 138, 139, 30, 701, 702, 703, 587
4, 30, 139, 140, 31, 703, 704, 705, 588
5, 31, 140, 141, 32, 705, 706, 707, 589
6, 32, 141, 27, 4, 707, 708, 584, 590
7, 14, 13, 142, 137, 568, 709, 710, 698
8, 137, 142, 143, 138, 710, 711, 712, 700
9, 138, 143, 144, 139, 712, 713, 714, 702
10, 139, 144, 145, 140, 714, 715, 716, 704
11, 140, 145, 146, 141, 716, 717, 718, 706
12, 141, 146, 26, 27, 718, 719, 583, 708
13, 13, 12, 147, 142, 567, 720, 721, 709
14, 142, 147, 148, 143, 721, 722, 723, 711
15, 143, 148, 149, 144, 723, 724, 725, 713
16, 144, 149, 150, 145, 725, 726, 727, 715
17, 145, 150, 151, 146, 727, 728, 729, 717
18, 146, 151, 25, 26, 729, 730, 582, 719
19, 12, 11, 152, 147, 566, 731, 732, 720
20, 147, 152, 153, 148, 732, 733, 734, 722
** ... 475 like lines cut
**
** Node sets +++++++++++++++++++++++++++++++++++++++++++++++
**
*Nset, Nset=fixedge
1, 2, 7, 8, 9, 10, 11, 12, 13, 14, 561, 562, 563, 564, 565, 566, 
567, 568, 569
*Nset, Nset=load
5, 6, 81, 82, 83, 84, 85, 86, 87, 88, 640, 641, 642, 643, 644, 645, 
646, 647, 648
*Nset, Nset=main
1, 2, 3, 4, 5, 6, 7, 8, 9, 10, 11, 12, 13, 14, 15, 16, 
17, 18, 19, 20, 21, 22, 23, 24, 25, 26, 27, 28, 29, 30, 31, 32, 
33, 34, 35, 36, 37, 38, 39, 40, 41, 42, 43, 44, 45, 46, 47, 48, 
49, 50, 51, 52, 53, 54, 55, 56, 57, 58, 59, 60, 61, 62, 63, 64, 
65, 66, 67, 68, 69, 70, 71, 72, 73, 74, 75, 76, 77, 78, 79, 80, 
81, 82, 83, 84, 85, 86, 87, 88, 89, 90, 91, 92, 93, 94, 95, 96, 
97, 98, 99, 100, 101, 102, 103, 104, 105, 106, 107, 108, 109, 110, 111, 112, 
113, 114, 115, 116, 117, 118, 119, 120, 121, 122, 123, 124, 125, 126, 127, 128, 
129, 130, 131, 132, 133, 134, 135, 136, 137, 138, 139, 140, 141, 142, 143, 144, 
145, 146, 147, 148, 149, 150, 151, 152, 153, 154, 155, 156, 157, 158, 159, 160, 
161, 162, 163, 164, 165, 166, 167, 168, 169, 170, 171, 172, 173, 174, 175, 176, 
177, 178, 179, 180, 181, 182, 183, 184, 185, 186, 187, 188, 189, 190, 191, 192, 
193, 194, 195, 196, 197, 198, 199, 200, 201, 202, 203, 204, 205, 206, 207, 208, 
209, 210, 211, 212, 213, 214, 215, 216, 217, 218, 219, 220, 221, 222, 223, 224, 
225, 226, 227, 228, 229, 230, 231, 232, 233, 234, 235, 236, 237, 238, 239, 240, 
241, 242, 243, 244, 245, 246, 247, 248, 249, 250, 251, 252, 253, 254, 255, 256, 
257, 258, 259, 260, 261, 262, 263, 264, 265, 266, 267, 268, 269, 270, 271, 272, 
273, 274, 275, 276, 277, 278, 279, 280, 281, 282, 283, 284, 285, 286, 287, 288, 
289, 290, 291, 292, 293, 294, 295, 296, 297, 298, 299, 300, 301, 302, 303, 304, 
305, 306, 307, 308, 309, 310, 311, 312, 313, 314, 315, 316, 317, 318, 319, 320, 
** ... 81 like lines cut
*Nset, Nset=Disp
6
*Nset, Nset=Internal-1_Internal_Selection-1_Surface_traction-1
88, 6, 648, 87, 647, 86, 646, 85, 645, 84, 644, 83, 643, 82, 642, 81, 
641, 5, 640
**
** Element sets ++++++++++++++++++++++++++++++++++++++++++++
**
*Elset, Elset=S8
1, 2, 3, 4, 5, 6, 7, 8, 9, 10, 11, 12, 13, 14, 15, 16, 
17, 18, 19, 20, 21, 22, 23, 24, 25, 26, 27, 28, 29, 30, 31, 32, 
33, 34, 35, 36, 37, 38, 39, 40, 41, 42, 43, 44, 45, 46, 47, 48, 
49, 50, 51, 52, 53, 54, 55, 56, 57, 58, 59, 60, 61, 62, 63, 64, 
65, 66, 67, 68, 69, 70, 71, 72, 73, 74, 75, 76, 77, 78, 79, 80, 
81, 82, 83, 84, 85, 86, 87, 88, 89, 90, 91, 92, 93, 94, 95, 96, 
97, 98, 99, 100, 101, 102, 103, 104, 105, 106, 107, 108, 109, 110, 111, 112, 
113, 114, 115, 116, 117, 118, 119, 120, 121, 122, 123, 124, 125, 126, 127, 128, 
129, 130, 131, 132, 133, 134, 135, 136, 137, 138, 139, 140, 141, 142, 143, 144, 
145, 146, 147, 148, 149, 150, 151, 152, 153, 154, 155, 156, 157, 158, 159, 160, 
161, 162, 163, 164, 165, 166, 167, 168, 169, 170, 171, 172, 173, 174, 175, 176, 
177, 178, 179, 180, 181, 182, 183, 184, 185, 186, 187, 188, 189, 190, 191, 192, 
193, 194, 195, 196, 197, 198, 199, 200, 201, 202, 203, 204, 205, 206, 207, 208, 
209, 210, 211, 212, 213, 214, 215, 216, 217, 218, 219, 220, 221, 222, 223, 224, 
225, 226, 227, 228, 229, 230, 231, 232, 233, 234, 235, 236, 237, 238, 239, 240, 
241, 242, 243, 244, 245, 246, 247, 248, 249, 250, 251, 252, 253, 254, 255, 256, 
257, 258, 259, 260, 261, 262, 263, 264, 265, 266, 267, 268, 269, 270, 271, 272, 
273, 274, 275, 276, 277, 278, 279, 280, 281, 282, 283, 284, 285, 286, 287, 288, 
289, 290, 291, 292, 293, 294, 295, 296, 297, 298, 299, 300, 301, 302, 303, 304, 
305, 306, 307, 308, 309, 310, 311, 312, 313, 314, 315, 316, 317, 318, 319, 320, 
** ... 11 like lines cut
*Elset, Elset=main
1, 2, 3, 4, 5, 6, 7, 8, 9, 10, 11, 12, 13, 14, 15, 16, 
17, 18, 19, 20, 21, 22, 23, 24, 25, 26, 27, 28, 29, 30, 31, 32, 
33, 34, 35, 36, 37, 38, 39, 40, 41, 42, 43, 44, 45, 46, 47, 48, 
49, 50, 51, 52, 53, 54, 55, 56, 57, 58, 59, 60, 61, 62, 63, 64, 
65, 66, 67, 68, 69, 70, 71, 72, 73, 74, 75, 76, 77, 78, 79, 80, 
81, 82, 83, 84, 85, 86, 87, 88, 89, 90, 91, 92, 93, 94, 95, 96, 
97, 98, 99, 100, 101, 102, 103, 104, 105, 106, 107, 108, 109, 110, 111, 112, 
113, 114, 115, 116, 117, 118, 119, 120, 121, 122, 123, 124, 125, 126, 127, 128, 
129, 130, 131, 132, 133, 134, 135, 136, 137, 138, 139, 140, 141, 142, 143, 144, 
145, 146, 147, 148, 149, 150, 151, 152, 153, 154, 155, 156, 157, 158, 159, 160, 
161, 162, 163, 164, 165, 166, 167, 168, 169, 170, 171, 172, 173, 174, 175, 176, 
177, 178, 179, 180, 181, 182, 183, 184, 185, 186, 187, 188, 189, 190, 191, 192, 
193, 194, 195, 196, 197, 198, 199, 200, 201, 202, 203, 204, 205, 206, 207, 208, 
209, 210, 211, 212, 213, 214, 215, 216, 217, 218, 219, 220, 221, 222, 223, 224, 
225, 226, 227, 228, 229, 230, 231, 232, 233, 234, 235, 236, 237, 238, 239, 240, 
241, 242, 243, 244, 245, 246, 247, 248, 249, 250, 251, 252, 253, 254, 255, 256, 
257, 258, 259, 260, 261, 262, 263, 264, 265, 266, 267, 268, 269, 270, 271, 272, 
273, 274, 275, 276, 277, 278, 279, 280, 281, 282, 283, 284, 285, 286, 287, 288, 
289, 290, 291, 292, 293, 294, 295, 296, 297, 298, 299, 300, 301, 302, 303, 304, 
305, 306, 307, 308, 309, 310, 311, 312, 313, 314, 315, 316, 317, 318, 319, 320, 
** ... 11 like lines cut
*Elset, Elset=Internal-1_Internal_Selection-1_Surface_traction-1_S5
103, 152, 201, 250, 299, 348, 397, 446, 495
**
** Surfaces ++++++++++++++++++++++++++++++++++++++++++++++++
**
*Surface, Name=Surface-1, Type=Node
load
*Surface, Name=Internal_Selection-1_Surface_traction-1, Type=Element
Internal-1_Internal_Selection-1_Surface_traction-1_S5, S5
**
** Materials +++++++++++++++++++++++++++++++++++++++++++++++
**
*Material, Name=Material-1
*Elastic
22770000, 0.35
**
** Sections ++++++++++++++++++++++++++++++++++++++++++++++++
**
*Shell section, Elset=S8, Material=Material-1, Offset=0
0.0508
**
** Pre-tension sections ++++++++++++++++++++++++++++++++++++
**
**
** Constraints +++++++++++++++++++++++++++++++++++++++++++++
**
**
** Surface interactions ++++++++++++++++++++++++++++++++++++
**
**
** Contact pairs +++++++++++++++++++++++++++++++++++++++++++
**
**
** Steps +++++++++++++++++++++++++++++++++++++++++++++++++++
**
**
** Step-1 ++++++++++++++++++++++++++++++++++++++++++++++++++
**
*Step
*Static
**
** Boundary conditions +++++++++++++++++++++++++++++++++++++
**
*Boundary, op=New
** Name: Displacement_rotation-1
*Boundary, Fixed
fixedge, 1, 1
fixedge, 2, 2
fixedge, 3, 3
**
** Loads +++++++++++++++++++++++++++++++++++++++++++++++++++
**
*Dload, op=New
*Cload, op=New
** Name: Surface_traction-1
*Cload
88, 3, 0.164748162964584
6, 3, 0.0823740814749954
648, 3, 0.329496325899981
87, 3, 0.164748162964584
647, 3, 0.329496325958356
86, 3, 0.164748162964585
646, 3, 0.329496325899981
85, 3, 0.164748162964585
645, 3, 0.329496325958357
84, 3, 0.164748162964584
644, 3, 0.329496325899981
83, 3, 0.164748162964585
643, 3, 0.329496325958357
82, 3, 0.164748162958747
642, 3, 0.329496325899981
81, 3, 0.164748162964585
641, 3, 0.329496325935007
5, 3, 0.0823740814808329
640, 3, 0.329496325923331
**
** History outputs +++++++++++++++++++++++++++++++++++++++++
**
*Node print, Nset=Disp, Totals=Yes
U
**
** Field outputs +++++++++++++++++++++++++++++++++++++++++++
**
*Node file
RF, U
*El file
S, E
**
** End step ++++++++++++++++++++++++++++++++++++++++++++++++
**
*End step
