**
** Heading +++++++++++++++++++++++++++++++++++++++++++++++++
**
*Heading
Hash: PXJD0WWr, Date: 03/11/2021, Unit system: MM_TON_S_C
**
** Nodes +++++++++++++++++++++++++++++++++++++++++++++++++++
**
*Node
1210, 3.90000000E+001, 3.57500000E+001, 5.00000000E+000
1077, 3.00000000E+001, 5.40000000E+001, 0.00000000E+000
1354, 2.40000000E+001, 5.01250000E+001, 0.00000000E+000
1107, 4.20000000E+001, 5.55625000E+001, 0.00000000E+000
1280, 4.80000000E+001, 4.60000000E+001, 2.50000000E+000
1090, 0.00000000E+000, 2.20000000E+001, 0.00000000E+000
1320, 3.60000000E+001, 4.88125000E+001, 0.00000000E+000
1355, 1.80000000E+001, 1.85937500E+001, 0.00000000E+000
1124, 2.40000000E+001, 3.32500000E+001, 0.00000000E+000
1109, 3.60000000E+001, 3.87500000E+001, 0.00000000E+000
1160, 1.20000000E+001, 2.95000000E+001, 5.00000000E+000
1351, 2.70000000E+001, 4.59375000E+001, 0.00000000E+000
1254, 0.00000000E+000, 1.92500000E+001, 0.00000000E+000
1314, 3.60000000E+001, 4.01875000E+001, 0.00000000E+000
1261, 0.00000000E+000, 1.37500000E+001, 5.00000000E+000
1195, 4.20000000E+001, 4.82500000E+001, 5.00000000E+000
1287, 4.20000000E+001, 5.80000000E+001, 2.50000000E+000
1199, 4.80000000E+001, 4.40000000E+001, 2.50000000E+000
1277, 4.80000000E+001, 5.20000000E+001, 2.50000000E+000
1238, 2.10000000E+001, 5.10000000E+001, 0.00000000E+000
** ... 511 like lines cut
**
** Elements ++++++++++++++++++++++++++++++++++++++++++++++++
**
*Element, Type=C3D20, Elset=Solid_part-1
1087, 1038, 1037, 1045, 1052, 1072, 1065, 1101, 1192, 1199, 1201, 1267, 1209, 1280, 1296, 1519
1512, 1233, 1225, 1295, 1497
1088, 1072, 1065, 1101, 1192, 1071, 1064, 1102, 1193, 1280, 1296, 1519, 1512, 1279, 1298, 1520
1513, 1232, 1224, 1297, 1499
1089, 1071, 1064, 1102, 1193, 1070, 1063, 1103, 1194, 1279, 1298, 1520, 1513, 1278, 1300, 1521
1514, 1231, 1223, 1299, 1501
1090, 1070, 1063, 1103, 1194, 1069, 1062, 1104, 1195, 1278, 1300, 1521, 1514, 1277, 1302, 1522
1515, 1230, 1222, 1301, 1503
1091, 1069, 1062, 1104, 1195, 1068, 1061, 1105, 1196, 1277, 1302, 1522, 1515, 1276, 1304, 1523
1516, 1229, 1221, 1303, 1505
1092, 1068, 1061, 1105, 1196, 1067, 1060, 1106, 1197, 1276, 1304, 1523, 1516, 1275, 1306, 1524
1517, 1228, 1220, 1305, 1507
1093, 1067, 1060, 1106, 1197, 1066, 1059, 1107, 1198, 1275, 1306, 1524, 1517, 1274, 1308, 1525
1518, 1227, 1219, 1307, 1509
1094, 1066, 1059, 1107, 1198, 1042, 1041, 1079, 1086, 1274, 1308, 1525, 1518, 1217, 1242, 1287
1250, 1226, 1218, 1309, 1511
1095, 1052, 1045, 1046, 1053, 1192, 1101, 1108, 1185, 1267, 1202, 1268, 1210, 1519, 1311, 1526
1498, 1497, 1295, 1310, 1482
1096, 1192, 1101, 1108, 1185, 1193, 1102, 1109, 1186, 1519, 1311, 1526, 1498, 1520, 1313, 1527
1500, 1499, 1297, 1312, 1484
** ... 108 like lines cut
**
** Node sets +++++++++++++++++++++++++++++++++++++++++++++++
**
*Nset, Nset=BC
1039, 1040, 1043, 1044, 1087, 1088, 1089, 1090, 1091, 1092, 1093, 1094, 1095, 1096, 1097, 1098, 
1099, 1100, 1200, 1234, 1251, 1252, 1253, 1254, 1255, 1256, 1257, 1258, 1259, 1260, 1261, 1262, 
1263, 1264, 1265, 1266, 1288, 1289, 1290, 1291, 1292, 1293, 1294
*Nset, Nset=Vertex
1042
*Nset, Nset=Load
1037, 1038, 1041, 1042, 1059, 1060, 1061, 1062, 1063, 1064, 1065, 1066, 1067, 1068, 1069, 1070, 
1071, 1072, 1199, 1217, 1218, 1219, 1220, 1221, 1222, 1223, 1224, 1225, 1226, 1227, 1228, 1229, 
1230, 1231, 1232, 1233, 1274, 1275, 1276, 1277, 1278, 1279, 1280
*Nset, Nset=ZSYMM
1037, 1038, 1039, 1040, 1041, 1042, 1043, 1044, 1045, 1046, 1047, 1048, 1049, 1050, 1051, 1052, 
1053, 1054, 1055, 1056, 1057, 1058, 1059, 1060, 1061, 1062, 1063, 1064, 1065, 1066, 1067, 1068, 
1069, 1070, 1071, 1072, 1073, 1074, 1075, 1076, 1077, 1078, 1079, 1080, 1081, 1082, 1083, 1084, 
1085, 1086, 1087, 1088, 1089, 1090, 1091, 1092, 1093, 1094, 1095, 1096, 1097, 1098, 1099, 1100, 
1101, 1102, 1103, 1104, 1105, 1106, 1107, 1108, 1109, 1110, 1111, 1112, 1113, 1114, 1115, 1116, 
1117, 1118, 1119, 1120, 1121, 1122, 1123, 1124, 1125, 1126, 1127, 1128, 1129, 1130, 1131, 1132, 
1133, 1134, 1135, 1136, 1137, 1138, 1139, 1140, 1141, 1142, 1143, 1144, 1145, 1146, 1147, 1148, 
1149, 1150, 1151, 1152, 1153, 1154, 1155, 1156, 1157, 1158, 1159, 1160, 1161, 1162, 1163, 1164, 
1165, 1166, 1167, 1168, 1169, 1170, 1171, 1172, 1173, 1174, 1175, 1176, 1177, 1178, 1179, 1180, 
1181, 1182, 1183, 1184, 1185, 1186, 1187, 1188, 1189, 1190, 1191, 1192, 1193, 1194, 1195, 1196, 
1197, 1198, 1201, 1202, 1203, 1204, 1205, 1206, 1207, 1208, 1209, 1210, 1211, 1212, 1213, 1214, 
1215, 1216, 1218, 1219, 1220, 1221, 1222, 1223, 1224, 1225, 1226, 1227, 1228, 1229, 1230, 1231, 
1232, 1233, 1235, 1236, 1237, 1238, 1239, 1240, 1241, 1242, 1243, 1244, 1245, 1246, 1247, 1248, 
1249, 1250, 1251, 1252, 1253, 1254, 1255, 1256, 1257, 1258, 1259, 1260, 1261, 1262, 1263, 1264, 
1265, 1266, 1295, 1296, 1297, 1298, 1299, 1300, 1301, 1302, 1303, 1304, 1305, 1306, 1307, 1308, 
1309, 1310, 1311, 1312, 1313, 1314, 1315, 1316, 1317, 1318, 1319, 1320, 1321, 1322, 1323, 1324, 
1325, 1326, 1327, 1328, 1329, 1330, 1331, 1332, 1333, 1334, 1335, 1336, 1337, 1338, 1339, 1340, 
1341, 1342, 1343, 1344, 1345, 1346, 1347, 1348, 1349, 1350, 1351, 1352, 1353, 1354, 1355, 1356, 
1357, 1358, 1359, 1360, 1361, 1362, 1363, 1364, 1365, 1366, 1367, 1368, 1369, 1370, 1371, 1372, 
1373, 1374, 1375, 1376, 1377, 1378, 1379, 1380, 1381, 1382, 1383, 1384, 1385, 1386, 1387, 1388, 
** ... 9 like lines cut
*Nset, Nset=Internal-1_Internal_Selection-1_Traction
1038, 1037, 1065, 1072, 1199, 1225, 1280, 1233, 1064, 1071, 1224, 1279, 1232, 1063, 1070, 1223, 
1278, 1231, 1062, 1069, 1222, 1277, 1230, 1061, 1068, 1221, 1276, 1229, 1060, 1067, 1220, 1275, 
1228, 1059, 1066, 1219, 1274, 1227, 1041, 1042, 1218, 1217, 1226
**
** Element sets ++++++++++++++++++++++++++++++++++++++++++++
**
*Elset, Elset=C3D20
1087, 1088, 1089, 1090, 1091, 1092, 1093, 1094, 1095, 1096, 1097, 1098, 1099, 1100, 1101, 1102, 
1103, 1104, 1105, 1106, 1107, 1108, 1109, 1110, 1111, 1112, 1113, 1114, 1115, 1116, 1117, 1118, 
1119, 1120, 1121, 1122, 1123, 1124, 1125, 1126, 1127, 1128, 1129, 1130, 1131, 1132, 1133, 1134, 
1135, 1136, 1137, 1138, 1139, 1140, 1141, 1142, 1143, 1144, 1145, 1146, 1147, 1148, 1149, 1150
*Elset, Elset=Internal-1_Internal_Selection-1_Traction_S3
1087, 1088, 1089, 1090, 1091, 1092, 1093, 1094
**
** Surfaces ++++++++++++++++++++++++++++++++++++++++++++++++
**
*Surface, Name=Internal_Selection-1_Traction, Type=Element
Internal-1_Internal_Selection-1_Traction_S3, S3
**
** Materials +++++++++++++++++++++++++++++++++++++++++++++++
**
** Name: Material-1: Deactivated
*Material, Name=Rubber
*Elastic,
70.0, 0.33
**
** Sections ++++++++++++++++++++++++++++++++++++++++++++++++
**
*SOLID SECTION, ELSET=Solid_part-1, Material=Rubber
**
** Pre-tension sections ++++++++++++++++++++++++++++++++++++
**
**
** Constraints +++++++++++++++++++++++++++++++++++++++++++++
**
**
** Surface interactions ++++++++++++++++++++++++++++++++++++
**
**
** Contact pairs +++++++++++++++++++++++++++++++++++++++++++
**
**
** Steps +++++++++++++++++++++++++++++++++++++++++++++++++++
**
**
** Step-1 ++++++++++++++++++++++++++++++++++++++++++++++++++
**
*Step
*Static
**
** Boundary conditions +++++++++++++++++++++++++++++++++++++
**
*Boundary, op=New
** Name: Disp_rot-1
*Boundary
BC, 1, 1, 0
BC, 2, 2, 0
BC, 3, 3, 0
** Name: Disp_rot-2
*Boundary
ZSYMM, 3, 3, 0
**
** Loads +++++++++++++++++++++++++++++++++++++++++++++++++++
**
*Dload, op=New
*Cload, op=New
** Name: Traction
*Cload
1038, 2, -5.20833333333333
1072, 2, -10.4166666666667
1065, 2, -10.4166666666667
1037, 2, -5.20833333333333
1233, 2, 20.8333333333333
1280, 2, 41.6666666666667
1225, 2, 20.8333333333333
1199, 2, 20.8333333333333
1071, 2, -10.4166666666667
1064, 2, -10.4166666666667
1232, 2, 20.8333333333333
1279, 2, 41.6666666666667
1224, 2, 20.8333333333333
1070, 2, -10.4166666666667
1063, 2, -10.4166666666667
1231, 2, 20.8333333333333
1278, 2, 41.6666666666667
1223, 2, 20.8333333333333
1069, 2, -10.4166666666667
1062, 2, -10.4166666666667
** ... 23 like lines cut
**
** History outputs +++++++++++++++++++++++++++++++++++++++++
**
*Node print, Nset=Vertex
U
**
** Field outputs +++++++++++++++++++++++++++++++++++++++++++
**
*Node file
RF, U
*El file
S, E
*NODE PRINT, NSET=Vertex,
U2
**
** End step ++++++++++++++++++++++++++++++++++++++++++++++++
**
*End step
