**
** Heading +++++++++++++++++++++++++++++++++++++++++++++++++
**
*Heading
Hash: PXJD0WWr, Date: 03/11/2021, Unit system: MM_TON_S_C
**
** Nodes +++++++++++++++++++++++++++++++++++++++++++++++++++
**
*Node
146, 2.09537008E+001, 3.61193793E+001, 0.00000000E+000
173, 4.38562060E+001, 4.75926768E+001, 2.42804006E+000
141, 0.00000000E+000, 3.30000000E+001, 0.00000000E+000
153, 2.54557190E+001, 4.04878281E+001, 5.00000000E+000
143, 0.00000000E+000, 2.20000000E+001, 5.00000000E+000
167, 3.47175736E+000, 7.98776812E+000, 2.50831473E+000
148, 9.61876875E+000, 3.62656952E+001, 0.00000000E+000
122, 3.20000000E+001, 2.93333333E+001, 0.00000000E+000
154, 3.70129463E+001, 4.65977722E+001, 5.00000000E+000
114, 4.80000000E+001, 4.40000000E+001, 5.00000000E+000
138, 3.60000000E+001, 5.60000000E+001, 5.00000000E+000
168, 8.74601414E+000, 4.20322623E+001, 2.48626207E+000
164, 1.80600159E+001, 2.26208039E+001, 2.46316851E+000
134, 2.40000000E+001, 5.20000000E+001, 0.00000000E+000
132, 4.80000000E+001, 5.20000000E+001, 5.00000000E+000
169, 3.13696021E+001, 4.86080544E+001, 2.53840785E+000
157, 2.08432151E+001, 3.11517267E+001, 5.00000000E+000
170, 4.45189945E+000, 3.72322627E+001, 2.46028868E+000
147, 6.62674176E+000, 2.71098856E+001, 0.00000000E+000
163, 2.72182683E+001, 3.45384338E+001, 2.49887755E+000
** ... 42 like lines cut
**
** Elements ++++++++++++++++++++++++++++++++++++++++++++++++
**
*Element, Type=C3D4, Elset=Solid_part-1
190, 169, 162, 135, 138
191, 150, 153, 159, 146
192, 144, 140, 141, 158
193, 144, 170, 155, 158
194, 159, 155, 148, 146
195, 169, 138, 135, 134
196, 152, 157, 148, 155
197, 126, 165, 160, 121
198, 159, 136, 168, 155
199, 155, 144, 120, 170
200, 134, 169, 138, 137
201, 160, 114, 154, 126
202, 161, 166, 140, 143
203, 145, 169, 134, 150
204, 157, 152, 148, 151
205, 122, 127, 165, 163
206, 154, 132, 162, 138
207, 157, 148, 146, 151
208, 146, 148, 157, 155
209, 152, 155, 148, 158
** ... 153 like lines cut
**
** Node sets +++++++++++++++++++++++++++++++++++++++++++++++
**
*Nset, Nset=BC
115, 116, 119, 120, 139, 140, 141, 142, 143, 144
*Nset, Nset=Vertex
118
*Nset, Nset=Load
113, 114, 117, 118, 131, 132
*Nset, Nset=ZSYMM
113, 114, 115, 116, 117, 118, 119, 120, 121, 122, 123, 124, 125, 126, 127, 128, 
129, 130, 131, 132, 133, 134, 135, 136, 137, 138, 139, 140, 141, 142, 143, 144, 
145, 146, 147, 148, 149, 150, 151, 152, 153, 154, 155, 156, 157
*Nset, Nset=Internal-1_Internal_Selection-1_Traction
118, 131, 117, 132, 113, 114
**
** Element sets ++++++++++++++++++++++++++++++++++++++++++++
**
*Elset, Elset=C3D4
190, 191, 192, 193, 194, 195, 196, 197, 198, 199, 200, 201, 202, 203, 204, 205, 
206, 207, 208, 209, 210, 211, 212, 213, 214, 215, 216, 217, 218, 219, 220, 221, 
222, 223, 224, 225, 226, 227, 228, 229, 230, 231, 232, 233, 234, 235, 236, 237, 
238, 239, 240, 241, 242, 243, 244, 245, 246, 247, 248, 249, 250, 251, 252, 253, 
254, 255, 256, 257, 258, 259, 260, 261, 262, 263, 264, 265, 266, 267, 268, 269, 
270, 271, 272, 273, 274, 275, 276, 277, 278, 279, 280, 281, 282, 283, 284, 285, 
286, 287, 288, 289, 290, 291, 292, 293, 294, 295, 296, 297, 298, 299, 300, 301, 
302, 303, 304, 305, 306, 307, 308, 309, 310, 311, 312, 313, 314, 315, 316, 317, 
318, 319, 320, 321, 322, 323, 324, 325, 326, 327, 328, 329, 330, 331, 332, 333, 
334, 335, 336, 337, 338, 339, 340, 341, 342, 343, 344, 345, 346, 347, 348, 349, 
350, 351, 352, 353, 354, 355, 356, 357, 358, 359, 360, 361, 362
*Elset, Elset=Internal-1_Internal_Selection-1_Traction_S1
214
*Elset, Elset=Internal-2_Internal_Selection-1_Traction_S2
225, 274
*Elset, Elset=Internal-3_Internal_Selection-1_Traction_S4
261
**
** Surfaces ++++++++++++++++++++++++++++++++++++++++++++++++
**
*Surface, Name=Internal_Selection-1_Traction, Type=Element
Internal-1_Internal_Selection-1_Traction_S1, S1
Internal-2_Internal_Selection-1_Traction_S2, S2
Internal-3_Internal_Selection-1_Traction_S4, S4
**
** Materials +++++++++++++++++++++++++++++++++++++++++++++++
**
** Name: Material-1: Deactivated
*Material, Name=Rubber
*Elastic,
70.0, 0.4999
**
** Sections ++++++++++++++++++++++++++++++++++++++++++++++++
**
*SOLID SECTION, ELSET=Solid_part-1, Material=Rubber
**
** Pre-tension sections ++++++++++++++++++++++++++++++++++++
**
**
** Constraints +++++++++++++++++++++++++++++++++++++++++++++
**
**
** Surface interactions ++++++++++++++++++++++++++++++++++++
**
**
** Contact pairs +++++++++++++++++++++++++++++++++++++++++++
**
**
** Steps +++++++++++++++++++++++++++++++++++++++++++++++++++
**
**
** Step-1 ++++++++++++++++++++++++++++++++++++++++++++++++++
**
*Step
*Static
**
** Boundary conditions +++++++++++++++++++++++++++++++++++++
**
*Boundary, op=New
** Name: Disp_rot-1
*Boundary
BC, 1, 1, 0
BC, 2, 2, 0
BC, 3, 3, 0
** Name: Disp_rot-2
*Boundary
ZSYMM, 3, 3, 0
**
** Loads +++++++++++++++++++++++++++++++++++++++++++++++++++
**
*Dload, op=New
*Cload, op=New
** Name: Traction
*Cload
118, 2, 83.3333333333333
117, 2, 41.6666666666667
131, 2, 125
113, 2, 83.3333333333333
132, 2, 125
114, 2, 41.6666666666667
**
** History outputs +++++++++++++++++++++++++++++++++++++++++
**
*Node print, Nset=Vertex
U
**
** Field outputs +++++++++++++++++++++++++++++++++++++++++++
**
*Node file
RF, U
*El file
S, E
*NODE PRINT, NSET=Vertex,
U2
**
** End step ++++++++++++++++++++++++++++++++++++++++++++++++
**
*End step
