*INCLUDE, INPUT=Mesh/fine-lin-hex.inp
*NORMAL
*MATERIAL, NAME=MAT
*ELASTIC, 
68.25e9, 0.3
*SHELL SECTION, ELSET=Shell, MATERIAL=MAT,OFFSET=-0.02
 0.04,
*STEP, 
**FREQUENCY, SOLVER=SPOOLES
*STATIC,
*EL FILE
E, S
*NODE FILE
U    
*NODE PRINT, NSET=A
U
*BOUNDARY, 
E,1,3,0
AE,2,2,0
AE,4,4,0
AE,6,6,0
CE,1,1,0
CE,5,6,0
*CLOAD
A,1,2000
C,2,-2000
*END STEP
