*INCLUDE, INPUT=fine-quad-hex.inp
*MATERIAL, NAME=MAT
*ELASTIC, 
6.825e10, 0.3
*SHELL SECTION, ELSET=RAASH_SHELL, MATERIAL=MAT,
 0.04,
*STEP
**FREQUENCY, SOLVER=SPOOLES
*STATIC
*EL FILE
E, S
*NODE FILE
U    
*BOUNDARY, 
E,1,3,0
AE,2,2,0
CE,1,1,0
AE,4,4,0
AE,6,6,0
CE,5,6,0
*CLOAD
A,1,2000
C,2,-2000
*END STEP
