**
** Heading +++++++++++++++++++++++++++++++++++++++++++++++++
**
*Heading
Hash: PXJD0WWr, Date: 03/11/2021, Unit system: MM_TON_S_C
**
** Nodes +++++++++++++++++++++++++++++++++++++++++++++++++++
**
*Node
918, 3.20000000E+001, 5.46666667E+001, 0.00000000E+000
895, 1.74545455E+001, 1.60000000E+001, 0.00000000E+000
894, 2.18181818E+001, 2.00000000E+001, 0.00000000E+000
1032, 7.69924829E+000, 4.37579831E+001, 2.50217529E+000
955, 2.95315199E+001, 3.34788999E+001, 0.00000000E+000
941, 4.25521707E+001, 4.64581454E+001, 0.00000000E+000
1010, 4.10915265E+001, 5.50709135E+001, 2.50980666E+000
888, 0.00000000E+000, 4.40000000E+001, 5.00000000E+000
889, 4.36363636E+001, 4.00000000E+001, 0.00000000E+000
887, 0.00000000E+000, 4.40000000E+001, 0.00000000E+000
970, 1.95881302E+001, 3.90947797E+001, 0.00000000E+000
947, 5.14725585E+000, 2.78644018E+001, 0.00000000E+000
884, 0.00000000E+000, 0.00000000E+000, 5.00000000E+000
1014, 1.29932527E+001, 4.54197407E+001, 2.50384433E+000
1030, 2.48094060E+000, 3.73372377E+001, 2.50196527E+000
921, 5.33333333E+000, 4.57777778E+001, 5.00000000E+000
934, 0.00000000E+000, 3.77142857E+001, 0.00000000E+000
896, 1.30909091E+001, 1.20000000E+001, 0.00000000E+000
1006, 8.05268378E+000, 1.88651621E+001, 5.00000000E+000
885, 4.80000000E+001, 6.00000000E+001, 0.00000000E+000
** ... 136 like lines cut
**
** Elements ++++++++++++++++++++++++++++++++++++++++++++++++
**
*Element, Type=C3D4, Elset=Solid_part-1
632, 991, 990, 996, 954
633, 988, 976, 956, 997
634, 949, 1014, 1033, 915
635, 954, 990, 1021, 978
636, 994, 1036, 1030, 959
637, 956, 976, 943, 997
638, 966, 992, 950, 981
639, 958, 1019, 931, 1026
640, 979, 978, 991, 951
641, 971, 965, 1001, 959
642, 954, 978, 941, 951
643, 956, 997, 1002, 988
644, 940, 994, 1036, 1030
645, 1012, 931, 937, 1026
646, 1001, 959, 1000, 994
647, 1002, 997, 972, 1004
648, 1005, 944, 1002, 975
649, 963, 1003, 998, 997
650, 1000, 964, 1002, 1005
651, 889, 1021, 941, 954
** ... 435 like lines cut
**
** Node sets +++++++++++++++++++++++++++++++++++++++++++++++
**
*Nset, Nset=BC
883, 884, 887, 888, 929, 930, 931, 932, 933, 934, 935, 936, 937, 938, 939, 940

*Nset, Nset=Vertex
886
*Nset, Nset=Load
881, 882, 885, 886, 909, 910, 911, 912
*Nset, Nset=ZSYMM
881, 882, 883, 884, 885, 886, 887, 888, 889, 890, 891, 892, 893, 894, 895, 896, 
897, 898, 899, 900, 901, 902, 903, 904, 905, 906, 907, 908, 909, 910, 911, 912, 
913, 914, 915, 916, 917, 918, 919, 920, 921, 922, 923, 924, 925, 926, 927, 928, 
929, 930, 931, 932, 933, 934, 935, 936, 937, 938, 939, 940, 941, 942, 943, 944, 
945, 946, 947, 948, 949, 950, 951, 952, 953, 954, 955, 956, 957, 958, 959, 960, 
961, 962, 963, 964, 965, 966, 967, 968, 969, 970, 971, 972, 973, 974, 975, 976, 
977, 978, 979, 980, 981, 982, 983, 984, 985, 986, 987, 988, 989, 990, 991, 992, 
993, 994, 995, 996, 997, 998, 999, 1000, 1001, 1002, 1003, 1004, 1005, 1006
*Nset, Nset=Internal-1_Internal_Selection-1_Traction
910, 882, 881, 909, 885, 911, 912, 886
**
** Element sets ++++++++++++++++++++++++++++++++++++++++++++
**
*Elset, Elset=C3D4
632, 633, 634, 635, 636, 637, 638, 639, 640, 641, 642, 643, 644, 645, 646, 647, 
648, 649, 650, 651, 652, 653, 654, 655, 656, 657, 658, 659, 660, 661, 662, 663, 
664, 665, 666, 667, 668, 669, 670, 671, 672, 673, 674, 675, 676, 677, 678, 679, 
680, 681, 682, 683, 684, 685, 686, 687, 688, 689, 690, 691, 692, 693, 694, 695, 
696, 697, 698, 699, 700, 701, 702, 703, 704, 705, 706, 707, 708, 709, 710, 711, 
712, 713, 714, 715, 716, 717, 718, 719, 720, 721, 722, 723, 724, 725, 726, 727, 
728, 729, 730, 731, 732, 733, 734, 735, 736, 737, 738, 739, 740, 741, 742, 743, 
744, 745, 746, 747, 748, 749, 750, 751, 752, 753, 754, 755, 756, 757, 758, 759, 
760, 761, 762, 763, 764, 765, 766, 767, 768, 769, 770, 771, 772, 773, 774, 775, 
776, 777, 778, 779, 780, 781, 782, 783, 784, 785, 786, 787, 788, 789, 790, 791, 
792, 793, 794, 795, 796, 797, 798, 799, 800, 801, 802, 803, 804, 805, 806, 807, 
808, 809, 810, 811, 812, 813, 814, 815, 816, 817, 818, 819, 820, 821, 822, 823, 
824, 825, 826, 827, 828, 829, 830, 831, 832, 833, 834, 835, 836, 837, 838, 839, 
840, 841, 842, 843, 844, 845, 846, 847, 848, 849, 850, 851, 852, 853, 854, 855, 
856, 857, 858, 859, 860, 861, 862, 863, 864, 865, 866, 867, 868, 869, 870, 871, 
872, 873, 874, 875, 876, 877, 878, 879, 880, 881, 882, 883, 884, 885, 886, 887, 
888, 889, 890, 891, 892, 893, 894, 895, 896, 897, 898, 899, 900, 901, 902, 903, 
904, 905, 906, 907, 908, 909, 910, 911, 912, 913, 914, 915, 916, 917, 918, 919, 
920, 921, 922, 923, 924, 925, 926, 927, 928, 929, 930, 931, 932, 933, 934, 935, 
936, 937, 938, 939, 940, 941, 942, 943, 944, 945, 946, 947, 948, 949, 950, 951, 
** ... 9 like lines cut
*Elset, Elset=Internal-1_Internal_Selection-1_Traction_S1
875, 898, 901, 902
*Elset, Elset=Internal-2_Internal_Selection-1_Traction_S4
957
*Elset, Elset=Internal-3_Internal_Selection-1_Traction_S3
962
**
** Surfaces ++++++++++++++++++++++++++++++++++++++++++++++++
**
*Surface, Name=Internal_Selection-1_Traction, Type=Element
Internal-1_Internal_Selection-1_Traction_S1, S1
Internal-2_Internal_Selection-1_Traction_S4, S4
Internal-3_Internal_Selection-1_Traction_S3, S3
**
** Materials +++++++++++++++++++++++++++++++++++++++++++++++
**
** Name: Material-1: Deactivated
*Material, Name=Rubber
*Elastic,
70.0, 0.33
**
** Sections ++++++++++++++++++++++++++++++++++++++++++++++++
**
*SOLID SECTION, ELSET=Solid_part-1, Material=Rubber
**
** Pre-tension sections ++++++++++++++++++++++++++++++++++++
**
**
** Constraints +++++++++++++++++++++++++++++++++++++++++++++
**
**
** Surface interactions ++++++++++++++++++++++++++++++++++++
**
**
** Contact pairs +++++++++++++++++++++++++++++++++++++++++++
**
**
** Steps +++++++++++++++++++++++++++++++++++++++++++++++++++
**
**
** Step-1 ++++++++++++++++++++++++++++++++++++++++++++++++++
**
*Step
*Static
**
** Boundary conditions +++++++++++++++++++++++++++++++++++++
**
*Boundary, op=New
** Name: Disp_rot-1
*Boundary
BC, 1, 1, 0
BC, 2, 2, 0
BC, 3, 3, 0
** Name: Disp_rot-2
*Boundary
ZSYMM, 3, 3, 0
**
** Loads +++++++++++++++++++++++++++++++++++++++++++++++++++
**
*Dload, op=New
*Cload, op=New
** Name: Traction
*Cload
910, 2, 83.3333333333333
881, 2, 27.7777777760417
882, 2, 55.5555555520833
909, 2, 83.3333333385417
911, 2, 83.3333333333333
885, 2, 55.5555555520833
912, 2, 83.3333333385417
886, 2, 27.7777777760417
**
** History outputs +++++++++++++++++++++++++++++++++++++++++
**
*Node print, Nset=Vertex
U
**
** Field outputs +++++++++++++++++++++++++++++++++++++++++++
**
*Node file
RF, U
*El file
S, E
*NODE PRINT, NSET=Vertex,
U2
**
** End step ++++++++++++++++++++++++++++++++++++++++++++++++
**
*End step
