**
** Heading +++++++++++++++++++++++++++++++++++++++++++++++++
**
*Heading
Hash: PXJD0WWr, Date: 03/11/2021, Unit system: MM_TON_S_C
**
** Nodes +++++++++++++++++++++++++++++++++++++++++++++++++++
**
*Node
1988, 2.11217531E+001, 4.80149877E+001, 5.00000000E+000
1879, 3.22203054E+001, 3.27394499E+001, 0.00000000E+000
1813, 4.80000000E+001, 4.93333333E+001, 2.50000000E+000
2016, 3.69598712E+001, 5.29456208E+001, 5.00000000E+000
2086, 1.00455810E+001, 2.76786164E+001, 5.00000000E+000
1602, 1.60000000E+001, 4.93333333E+001, 0.00000000E+000
1949, 1.79533193E+001, 2.76544684E+001, 0.00000000E+000
1801, 1.52727273E+001, 1.40000000E+001, 2.50000000E+000
1853, 1.06670774E+001, 1.30630882E+001, 0.00000000E+000
1982, 4.53333333E+001, 5.64444444E+001, 5.00000000E+000
1723, 2.36067722E+000, 3.27171473E+001, 2.50585855E+000
1830, 5.33333333E+000, 4.57777778E+001, 2.50000000E+000
1597, 4.80000000E+001, 4.93333333E+001, 0.00000000E+000
1970, 2.18181818E+000, 5.14285714E+000, 5.00000000E+000
1603, 2.13333333E+001, 5.11111111E+001, 0.00000000E+000
2051, 2.99703234E+001, 3.93532545E+001, 5.00000000E+000
2000, 2.14288495E+000, 1.13311259E+001, 5.00000000E+000
2090, 2.33151950E+001, 3.96499805E+001, 5.00000000E+000
2050, 2.04614948E+001, 4.18728234E+001, 5.00000000E+000
1755, 0.00000000E+000, 4.40000000E+001, 2.50000000E+000
** ... 870 like lines cut
**
** Elements ++++++++++++++++++++++++++++++++++++++++++++++++
**
*Element, Type=C3D10, Elset=Solid_part-1
1151, 1678, 1677, 1683, 1641, 2061, 2045, 2056, 2096, 2098, 2097
1152, 1675, 1663, 1643, 1684, 2037, 2100, 2099, 2048, 2047, 2101
1153, 1636, 1701, 1720, 1602, 2104, 2103, 2102, 1862, 2106, 2105
1154, 1641, 1677, 1708, 1665, 2098, 2108, 2107, 2109, 2035, 2110
1155, 1681, 1723, 1717, 1646, 2113, 2112, 2111, 2114, 2116, 2115
1156, 1643, 1663, 1630, 1684, 2100, 2117, 1904, 2101, 2047, 2118
1157, 1653, 1679, 1637, 1668, 2120, 2119, 1924, 2121, 2041, 2122
1158, 1645, 1706, 1618, 1713, 2124, 2123, 1888, 2125, 2127, 2126
1159, 1666, 1665, 1678, 1638, 2038, 2044, 2017, 2128, 2130, 2129
1160, 1658, 1652, 1688, 1646, 1945, 2132, 2131, 1944, 1922, 2133
1161, 1641, 1665, 1628, 1638, 2109, 2134, 1897, 1942, 2130, 1917
1162, 1643, 1684, 1689, 1675, 2101, 2067, 2135, 2099, 2048, 2065
1163, 1627, 1681, 1723, 1717, 2025, 2113, 2136, 2137, 2111, 2112
1164, 1699, 1618, 1624, 1713, 2139, 1834, 2138, 2140, 2126, 2141
1165, 1688, 1646, 1687, 1681, 2133, 2142, 2078, 2064, 2114, 2058
1166, 1689, 1684, 1659, 1691, 2067, 2144, 2143, 2094, 2091, 2145
1167, 1692, 1631, 1689, 1662, 2147, 2146, 2080, 2081, 2148, 2066
1168, 1650, 1690, 1685, 1684, 2150, 2088, 2149, 2151, 2071, 2089
1169, 1687, 1651, 1689, 1692, 2153, 2152, 2093, 2086, 2154, 2080
1170, 1576, 1708, 1628, 1641, 2156, 2155, 1844, 1877, 2107, 1897
** ... 435 like lines cut
**
** Node sets +++++++++++++++++++++++++++++++++++++++++++++++
**
*Nset, Nset=BC
1570, 1571, 1574, 1575, 1616, 1617, 1618, 1619, 1620, 1621, 1622, 1623, 1624, 1625, 1626, 1627, 
1725, 1755, 1774, 1775, 1776, 1777, 1778, 1779, 1780, 1781, 1782, 1783, 1784, 1785, 1786, 1787, 
1831, 1832, 1833, 1834, 1835, 1836, 1837, 1838, 1839, 1840, 1841, 1842, 1843
*Nset, Nset=Vertex
1573
*Nset, Nset=Load
1568, 1569, 1572, 1573, 1596, 1597, 1598, 1599, 1724, 1748, 1749, 1750, 1751, 1752, 1753, 1754, 
1809, 1810, 1811, 1812, 1813
*Nset, Nset=ZSYMM
1568, 1569, 1570, 1571, 1572, 1573, 1574, 1575, 1576, 1577, 1578, 1579, 1580, 1581, 1582, 1583, 
1584, 1585, 1586, 1587, 1588, 1589, 1590, 1591, 1592, 1593, 1594, 1595, 1596, 1597, 1598, 1599, 
1600, 1601, 1602, 1603, 1604, 1605, 1606, 1607, 1608, 1609, 1610, 1611, 1612, 1613, 1614, 1615, 
1616, 1617, 1618, 1619, 1620, 1621, 1622, 1623, 1624, 1625, 1626, 1627, 1628, 1629, 1630, 1631, 
1632, 1633, 1634, 1635, 1636, 1637, 1638, 1639, 1640, 1641, 1642, 1643, 1644, 1645, 1646, 1647, 
1648, 1649, 1650, 1651, 1652, 1653, 1654, 1655, 1656, 1657, 1658, 1659, 1660, 1661, 1662, 1663, 
1664, 1665, 1666, 1667, 1668, 1669, 1670, 1671, 1672, 1673, 1674, 1675, 1676, 1677, 1678, 1679, 
1680, 1681, 1682, 1683, 1684, 1685, 1686, 1687, 1688, 1689, 1690, 1691, 1692, 1693, 1726, 1727, 
1728, 1729, 1730, 1731, 1732, 1733, 1734, 1735, 1736, 1737, 1738, 1739, 1740, 1741, 1742, 1743, 
1744, 1745, 1746, 1747, 1749, 1750, 1751, 1752, 1753, 1754, 1756, 1757, 1758, 1759, 1760, 1761, 
1762, 1763, 1764, 1765, 1766, 1767, 1768, 1769, 1770, 1771, 1772, 1773, 1774, 1775, 1776, 1777, 
1778, 1779, 1780, 1781, 1782, 1783, 1784, 1785, 1786, 1787, 1844, 1845, 1846, 1847, 1848, 1849, 
1850, 1851, 1852, 1853, 1854, 1855, 1856, 1857, 1858, 1859, 1860, 1861, 1862, 1863, 1864, 1865, 
1866, 1867, 1868, 1869, 1870, 1871, 1872, 1873, 1874, 1875, 1876, 1877, 1878, 1879, 1880, 1881, 
1882, 1883, 1884, 1885, 1886, 1887, 1888, 1889, 1890, 1891, 1892, 1893, 1894, 1895, 1896, 1897, 
1898, 1899, 1900, 1901, 1902, 1903, 1904, 1905, 1906, 1907, 1908, 1909, 1910, 1911, 1912, 1913, 
1914, 1915, 1916, 1917, 1918, 1919, 1920, 1921, 1922, 1923, 1924, 1925, 1926, 1927, 1928, 1929, 
1930, 1931, 1932, 1933, 1934, 1935, 1936, 1937, 1938, 1939, 1940, 1941, 1942, 1943, 1944, 1945, 
1946, 1947, 1948, 1949, 1950, 1951, 1952, 1953, 1954, 1955, 1956, 1957, 1958, 1959, 1960, 1961, 
1962, 1963, 1964, 1965, 1966, 1967, 1968, 1969, 1970, 1971, 1972, 1973, 1974, 1975, 1976, 1977, 
** ... 8 like lines cut
*Nset, Nset=Internal-1_Internal_Selection-1_Traction
1597, 1569, 1568, 1812, 1724, 1751, 1596, 1572, 1598, 1749, 1809, 1811, 1599, 1810, 1753, 1750, 
1813, 1573, 1748, 1752, 1754
**
** Element sets ++++++++++++++++++++++++++++++++++++++++++++
**
*Elset, Elset=C3D10
1151, 1152, 1153, 1154, 1155, 1156, 1157, 1158, 1159, 1160, 1161, 1162, 1163, 1164, 1165, 1166, 
1167, 1168, 1169, 1170, 1171, 1172, 1173, 1174, 1175, 1176, 1177, 1178, 1179, 1180, 1181, 1182, 
1183, 1184, 1185, 1186, 1187, 1188, 1189, 1190, 1191, 1192, 1193, 1194, 1195, 1196, 1197, 1198, 
1199, 1200, 1201, 1202, 1203, 1204, 1205, 1206, 1207, 1208, 1209, 1210, 1211, 1212, 1213, 1214, 
1215, 1216, 1217, 1218, 1219, 1220, 1221, 1222, 1223, 1224, 1225, 1226, 1227, 1228, 1229, 1230, 
1231, 1232, 1233, 1234, 1235, 1236, 1237, 1238, 1239, 1240, 1241, 1242, 1243, 1244, 1245, 1246, 
1247, 1248, 1249, 1250, 1251, 1252, 1253, 1254, 1255, 1256, 1257, 1258, 1259, 1260, 1261, 1262, 
1263, 1264, 1265, 1266, 1267, 1268, 1269, 1270, 1271, 1272, 1273, 1274, 1275, 1276, 1277, 1278, 
1279, 1280, 1281, 1282, 1283, 1284, 1285, 1286, 1287, 1288, 1289, 1290, 1291, 1292, 1293, 1294, 
1295, 1296, 1297, 1298, 1299, 1300, 1301, 1302, 1303, 1304, 1305, 1306, 1307, 1308, 1309, 1310, 
1311, 1312, 1313, 1314, 1315, 1316, 1317, 1318, 1319, 1320, 1321, 1322, 1323, 1324, 1325, 1326, 
1327, 1328, 1329, 1330, 1331, 1332, 1333, 1334, 1335, 1336, 1337, 1338, 1339, 1340, 1341, 1342, 
1343, 1344, 1345, 1346, 1347, 1348, 1349, 1350, 1351, 1352, 1353, 1354, 1355, 1356, 1357, 1358, 
1359, 1360, 1361, 1362, 1363, 1364, 1365, 1366, 1367, 1368, 1369, 1370, 1371, 1372, 1373, 1374, 
1375, 1376, 1377, 1378, 1379, 1380, 1381, 1382, 1383, 1384, 1385, 1386, 1387, 1388, 1389, 1390, 
1391, 1392, 1393, 1394, 1395, 1396, 1397, 1398, 1399, 1400, 1401, 1402, 1403, 1404, 1405, 1406, 
1407, 1408, 1409, 1410, 1411, 1412, 1413, 1414, 1415, 1416, 1417, 1418, 1419, 1420, 1421, 1422, 
1423, 1424, 1425, 1426, 1427, 1428, 1429, 1430, 1431, 1432, 1433, 1434, 1435, 1436, 1437, 1438, 
1439, 1440, 1441, 1442, 1443, 1444, 1445, 1446, 1447, 1448, 1449, 1450, 1451, 1452, 1453, 1454, 
1455, 1456, 1457, 1458, 1459, 1460, 1461, 1462, 1463, 1464, 1465, 1466, 1467, 1468, 1469, 1470, 
** ... 9 like lines cut
*Elset, Elset=Internal-1_Internal_Selection-1_Traction_S1
1394, 1417, 1420, 1421
*Elset, Elset=Internal-2_Internal_Selection-1_Traction_S4
1476
*Elset, Elset=Internal-3_Internal_Selection-1_Traction_S3
1481
**
** Surfaces ++++++++++++++++++++++++++++++++++++++++++++++++
**
*Surface, Name=Internal_Selection-1_Traction, Type=Element
Internal-1_Internal_Selection-1_Traction_S1, S1
Internal-2_Internal_Selection-1_Traction_S4, S4
Internal-3_Internal_Selection-1_Traction_S3, S3
**
** Materials +++++++++++++++++++++++++++++++++++++++++++++++
**
** Name: Material-1: Deactivated
*Material, Name=Rubber
*Elastic,
70.0, 0.4999
**
** Sections ++++++++++++++++++++++++++++++++++++++++++++++++
**
*SOLID SECTION, ELSET=Solid_part-1, Material=Rubber
**
** Pre-tension sections ++++++++++++++++++++++++++++++++++++
**
**
** Constraints +++++++++++++++++++++++++++++++++++++++++++++
**
**
** Surface interactions ++++++++++++++++++++++++++++++++++++
**
**
** Contact pairs +++++++++++++++++++++++++++++++++++++++++++
**
**
** Steps +++++++++++++++++++++++++++++++++++++++++++++++++++
**
**
** Step-1 ++++++++++++++++++++++++++++++++++++++++++++++++++
**
*Step
*Static
**
** Boundary conditions +++++++++++++++++++++++++++++++++++++
**
*Boundary, op=New
** Name: Disp_rot-1
*Boundary
BC, 1, 1, 0
BC, 2, 2, 0
BC, 3, 3, 0
** Name: Disp_rot-2
*Boundary
ZSYMM, 3, 3, 0
**
** Loads +++++++++++++++++++++++++++++++++++++++++++++++++++
**
*Dload, op=New
*Cload, op=New
** Name: Traction
*Cload
1751, 2, 27.7777777786458
1724, 2, 27.7777777786458
1812, 2, 55.5555555520833
1811, 2, 55.5555555546875
1809, 2, 55.5555555520833
1749, 2, 27.7777777734375
1753, 2, 27.77777778125
1810, 2, 55.5555555625
1813, 2, 55.5555555546875
1750, 2, 27.77777778125
1752, 2, 27.7777777786458
1748, 2, 27.7777777786458
1754, 2, 27.7777777734375
**
** History outputs +++++++++++++++++++++++++++++++++++++++++
**
*Node print, Nset=Vertex
U
**
** Field outputs +++++++++++++++++++++++++++++++++++++++++++
**
*Node file
RF, U
*El file
S, E
*NODE PRINT, NSET=Vertex,
U2
**
** End step ++++++++++++++++++++++++++++++++++++++++++++++++
**
*End step
