*INCLUDE, INPUT=Mesh/fine-lin-hex.inp
*MATERIAL, NAME=Steel
*DENSITY
 7800
*ELASTIC, 
2.1e11, 0.3
*SOLID SECTION, ELSET=ELIPSE, MATERIAL=Steel 
0.1,
*STEP
*STATIC, SOLVER=SPOOLES
*EL FILE
E, S
*NODE FILE
U    
*BOUNDARY, 
AB,1,1,0
*BOUNDARY 
CD,2,2,0
*DLOAD
    *INCLUDE, INPUT=Pressure/fine-lin-hex.dlo
*END STEP
