*INCLUDE, INPUT=cofea-QUAD-HEX-1-0.inp 
** *INCLUDE, INPUT=TET-1-0.inp
** *INCLUDE, INPUT=TET-0-5.inp  
** *INCLUDE, INPUT=HEX-2-0.inp 
** *INCLUDE, INPUT=HEX-1-0.inp 
** *INCLUDE, INPUT=HEX-0-5.inp 
**
** Materials +++++++++++++++++++++++++++++++++++++++++++++++
**
*Material, Name=Material-1
*Density
7.829E-09
*Elastic
207000, 0.33
**
** Sections ++++++++++++++++++++++++++++++++++++++++++++++++
**
*Solid section, Elset=Fork-1-C3D20R-ALL, Material=Material-1
**
** Steps +++++++++++++++++++++++++++++++++++++++++++++++++++
**
**
** Frequency +++++++++++++++++++++++++++++++++++++++++++++++
**
*Step, Perturbation
*Frequency
12
**
** Boundary conditions +++++++++++++++++++++++++++++++++++++
**
*Boundary, op=New
**
** Loads +++++++++++++++++++++++++++++++++++++++++++++++++++
**
*Dload, op=New
*Cload, op=New
**
** History outputs +++++++++++++++++++++++++++++++++++++++++
**
**
** Field outputs +++++++++++++++++++++++++++++++++++++++++++
**
*Node file
RF, U
*El file
S, E
**
** End step ++++++++++++++++++++++++++++++++++++++++++++++++
**
*End step
