**
** Heading +++++++++++++++++++++++++++++++++++++++++++++++++
**
*Heading
Hash: PXJD0WWr, Date: 03/11/2021, Unit system: MM_TON_S_C
**
** Nodes +++++++++++++++++++++++++++++++++++++++++++++++++++
**
*Node
2855, 3.84000000E+001, 4.45600000E+001, 0.00000000E+000
2470, 4.00000000E+001, 3.66666667E+001, 0.00000000E+000
2542, 4.80000000E+001, 4.98666667E+001, 0.00000000E+000
2811, 4.16000000E+001, 5.58933333E+001, 0.00000000E+000
3205, 1.92000000E+001, 3.40000000E+001, 0.00000000E+000
3324, 1.28000000E+001, 3.36533333E+001, 0.00000000E+000
2904, 3.52000000E+001, 3.53955556E+001, 0.00000000E+000
3022, 2.88000000E+001, 3.18400000E+001, 0.00000000E+000
3086, 2.56000000E+001, 3.50933333E+001, 0.00000000E+000
2489, 9.60000000E+000, 8.80000000E+000, 0.00000000E+000
3309, 1.28000000E+001, 1.53866667E+001, 0.00000000E+000
2802, 4.16000000E+001, 4.99733333E+001, 0.00000000E+000
2640, 0.00000000E+000, 1.46666667E+000, 0.00000000E+000
2604, 3.68000000E+001, 5.62666667E+001, 0.00000000E+000
2532, 4.80000000E+001, 5.52000000E+001, 0.00000000E+000
3098, 2.56000000E+001, 4.67200000E+001, 0.00000000E+000
3168, 2.08000000E+001, 2.65022222E+001, 0.00000000E+000
2900, 3.68000000E+001, 5.55155556E+001, 0.00000000E+000
3134, 2.24000000E+001, 2.25955556E+001, 0.00000000E+000
2700, 4.64000000E+001, 4.42266667E+001, 0.00000000E+000
** ... 17929 like lines cut
**
** Elements ++++++++++++++++++++++++++++++++++++++++++++++++
**
*Element, Type=C3D20, Elset=Solid_part-1
1606, 2459, 4382, 4450, 2495, 2581, 4565, 4740, 4351, 7266, 7637, 7696, 7301, 7930, 11824, 11823
11794, 7394, 7901, 11825, 11735
1607, 2581, 4565, 4740, 4351, 2580, 4564, 4741, 4352, 7930, 11824, 11823, 11794, 7929, 11827, 11826
11795, 7393, 7899, 11828, 11737
1608, 2580, 4564, 4741, 4352, 2579, 4563, 4742, 4353, 7929, 11827, 11826, 11795, 7928, 11830, 11829
11796, 7392, 7897, 11831, 11739
1609, 2579, 4563, 4742, 4353, 2578, 4562, 4743, 4354, 7928, 11830, 11829, 11796, 7927, 11833, 11832
11797, 7391, 7895, 11834, 11741
1610, 2578, 4562, 4743, 4354, 2577, 4561, 4744, 4355, 7927, 11833, 11832, 11797, 7926, 11836, 11835
11798, 7390, 7893, 11837, 11743
1611, 2577, 4561, 4744, 4355, 2576, 4560, 4745, 4356, 7926, 11836, 11835, 11798, 7925, 11839, 11838
11799, 7389, 7891, 11840, 11745
1612, 2576, 4560, 4745, 4356, 2575, 4559, 4746, 4357, 7925, 11839, 11838, 11799, 7924, 11842, 11841
11800, 7388, 7889, 11843, 11747
1613, 2575, 4559, 4746, 4357, 2574, 4558, 4747, 4358, 7924, 11842, 11841, 11800, 7923, 11845, 11844
11801, 7387, 7887, 11846, 11749
1614, 2574, 4558, 4747, 4358, 2573, 4557, 4748, 4359, 7923, 11845, 11844, 11801, 7922, 11848, 11847
11802, 7386, 7885, 11849, 11751
1615, 2573, 4557, 4748, 4359, 2572, 4556, 4749, 4360, 7922, 11848, 11847, 11802, 7921, 11851, 11850
11803, 7385, 7883, 11852, 11753
** ... 7180 like lines cut
**
** Node sets +++++++++++++++++++++++++++++++++++++++++++++++
**
*Nset, Nset=BC
2460, 2461, 2464, 2465, 2640, 2641, 2642, 2643, 2644, 2645, 2646, 2647, 2648, 2649, 2650, 2651, 
2652, 2653, 2654, 2655, 2656, 2657, 2658, 2659, 2660, 2661, 2662, 2663, 2664, 2665, 2666, 2667, 
2668, 2669, 2670, 2671, 2672, 2673, 2674, 2675, 2676, 2677, 2678, 2679, 2680, 2681, 2682, 2683, 
2684, 2685, 2686, 2687, 2688, 2689, 2690, 2691, 2692, 2693, 2694, 2695, 2696, 2697, 4383, 4384, 
4385, 4389, 4390, 4391, 4653, 4654, 4655, 4656, 4657, 4658, 4659, 4660, 4661, 4662, 4663, 4664, 
4665, 4666, 4667, 4668, 4669, 4670, 4671, 4672, 4673, 4674, 4675, 4676, 4677, 4678, 4679, 4680, 
4681, 4682, 4683, 4684, 4685, 4686, 4687, 4688, 4689, 4690, 4691, 4692, 4693, 4694, 4695, 4696, 
4697, 4698, 4699, 4700, 4701, 4702, 4703, 4704, 4705, 4706, 4707, 4708, 4709, 4710, 4711, 4712, 
4713, 4714, 4715, 4716, 4717, 4718, 4719, 4720, 4721, 4722, 4723, 4724, 4725, 4726, 4727, 4728, 
4729, 4730, 4731, 4732, 4733, 4734, 4735, 4736, 4737, 4738, 4739, 7267, 7268, 7269, 7270, 7395, 
7396, 7397, 7398, 7459, 7460, 7461, 7462, 7463, 7464, 7465, 7466, 7467, 7468, 7469, 7470, 7471, 
7472, 7473, 7474, 7475, 7476, 7477, 7478, 7479, 7480, 7481, 7482, 7483, 7484, 7485, 7486, 7487, 
7488, 7489, 7490, 7491, 7492, 7493, 7494, 7495, 7496, 7497, 7498, 7499, 7500, 7501, 7502, 7503, 
7504, 7505, 7506, 7507, 7508, 7509, 7510, 7511, 7512, 7513, 7514, 7515, 7516, 7517, 7518, 8137, 
8138, 8139, 8140, 8141, 8142, 8143, 8144, 8145, 8146, 8147, 8148, 8149, 8150, 8151, 8152, 8153, 
8154, 8155, 8156, 8157, 8158, 8159, 8160, 8161, 8162, 8163, 8164, 8165, 8166, 8167, 8168, 8169, 
8170, 8171, 8172, 8173, 8174, 8175, 8176, 8177, 8178, 8179, 8180, 8181, 8182, 8183, 8184, 8185, 
8186, 8187, 8188, 8189, 8190, 8191, 8192, 8193, 8194, 8195, 8196, 8197, 8198, 8199, 8200, 8201, 
8202, 8203, 8204, 8205, 8206, 8207, 8208, 8209, 8210, 8211, 8212, 8213, 8214, 8215, 8216, 8217, 
8218, 8219, 8220, 8221, 8222, 8223, 8224, 8225, 8226, 8227, 8228, 8229, 8230, 8231, 8232, 8233, 
** ... 7 like lines cut
*Nset, Nset=Vertex
2463
*Nset, Nset=Load
2458, 2459, 2462, 2463, 2524, 2525, 2526, 2527, 2528, 2529, 2530, 2531, 2532, 2533, 2534, 2535, 
2536, 2537, 2538, 2539, 2540, 2541, 2542, 2543, 2544, 2545, 2546, 2547, 2548, 2549, 2550, 2551, 
2552, 2553, 2554, 2555, 2556, 2557, 2558, 2559, 2560, 2561, 2562, 2563, 2564, 2565, 2566, 2567, 
2568, 2569, 2570, 2571, 2572, 2573, 2574, 2575, 2576, 2577, 2578, 2579, 2580, 2581, 4380, 4381, 
4382, 4386, 4387, 4388, 4479, 4480, 4481, 4482, 4483, 4484, 4485, 4486, 4487, 4488, 4489, 4490, 
4491, 4492, 4493, 4494, 4495, 4496, 4497, 4498, 4499, 4500, 4501, 4502, 4503, 4504, 4505, 4506, 
4507, 4508, 4509, 4510, 4511, 4512, 4513, 4514, 4515, 4516, 4517, 4518, 4519, 4520, 4521, 4522, 
4523, 4524, 4525, 4526, 4527, 4528, 4529, 4530, 4531, 4532, 4533, 4534, 4535, 4536, 4537, 4538, 
4539, 4540, 4541, 4542, 4543, 4544, 4545, 4546, 4547, 4548, 4549, 4550, 4551, 4552, 4553, 4554, 
4555, 4556, 4557, 4558, 4559, 4560, 4561, 4562, 4563, 4564, 4565, 7263, 7264, 7265, 7266, 7331, 
7332, 7333, 7334, 7335, 7336, 7337, 7338, 7339, 7340, 7341, 7342, 7343, 7344, 7345, 7346, 7347, 
7348, 7349, 7350, 7351, 7352, 7353, 7354, 7355, 7356, 7357, 7358, 7359, 7360, 7361, 7362, 7363, 
7364, 7365, 7366, 7367, 7368, 7369, 7370, 7371, 7372, 7373, 7374, 7375, 7376, 7377, 7378, 7379, 
7380, 7381, 7382, 7383, 7384, 7385, 7386, 7387, 7388, 7389, 7390, 7391, 7392, 7393, 7394, 7725, 
7726, 7727, 7728, 7729, 7730, 7731, 7732, 7733, 7734, 7735, 7736, 7737, 7738, 7739, 7740, 7741, 
7742, 7743, 7744, 7745, 7746, 7747, 7748, 7749, 7750, 7751, 7752, 7753, 7754, 7755, 7756, 7757, 
7758, 7759, 7760, 7761, 7762, 7763, 7764, 7765, 7766, 7767, 7768, 7769, 7770, 7771, 7772, 7773, 
7774, 7775, 7776, 7777, 7778, 7779, 7780, 7781, 7782, 7783, 7784, 7785, 7786, 7787, 7788, 7789, 
7790, 7791, 7792, 7793, 7794, 7795, 7796, 7797, 7798, 7799, 7800, 7801, 7802, 7803, 7804, 7805, 
7806, 7807, 7808, 7809, 7810, 7811, 7812, 7813, 7814, 7815, 7816, 7817, 7818, 7819, 7820, 7821, 
** ... 7 like lines cut
*Nset, Nset=ZSYMM
2458, 2459, 2460, 2461, 2462, 2463, 2464, 2465, 2466, 2467, 2468, 2469, 2470, 2471, 2472, 2473, 
2474, 2475, 2476, 2477, 2478, 2479, 2480, 2481, 2482, 2483, 2484, 2485, 2486, 2487, 2488, 2489, 
2490, 2491, 2492, 2493, 2494, 2495, 2496, 2497, 2498, 2499, 2500, 2501, 2502, 2503, 2504, 2505, 
2506, 2507, 2508, 2509, 2510, 2511, 2512, 2513, 2514, 2515, 2516, 2517, 2518, 2519, 2520, 2521, 
2522, 2523, 2524, 2525, 2526, 2527, 2528, 2529, 2530, 2531, 2532, 2533, 2534, 2535, 2536, 2537, 
2538, 2539, 2540, 2541, 2542, 2543, 2544, 2545, 2546, 2547, 2548, 2549, 2550, 2551, 2552, 2553, 
2554, 2555, 2556, 2557, 2558, 2559, 2560, 2561, 2562, 2563, 2564, 2565, 2566, 2567, 2568, 2569, 
2570, 2571, 2572, 2573, 2574, 2575, 2576, 2577, 2578, 2579, 2580, 2581, 2582, 2583, 2584, 2585, 
2586, 2587, 2588, 2589, 2590, 2591, 2592, 2593, 2594, 2595, 2596, 2597, 2598, 2599, 2600, 2601, 
2602, 2603, 2604, 2605, 2606, 2607, 2608, 2609, 2610, 2611, 2612, 2613, 2614, 2615, 2616, 2617, 
2618, 2619, 2620, 2621, 2622, 2623, 2624, 2625, 2626, 2627, 2628, 2629, 2630, 2631, 2632, 2633, 
2634, 2635, 2636, 2637, 2638, 2639, 2640, 2641, 2642, 2643, 2644, 2645, 2646, 2647, 2648, 2649, 
2650, 2651, 2652, 2653, 2654, 2655, 2656, 2657, 2658, 2659, 2660, 2661, 2662, 2663, 2664, 2665, 
2666, 2667, 2668, 2669, 2670, 2671, 2672, 2673, 2674, 2675, 2676, 2677, 2678, 2679, 2680, 2681, 
2682, 2683, 2684, 2685, 2686, 2687, 2688, 2689, 2690, 2691, 2692, 2693, 2694, 2695, 2696, 2697, 
2698, 2699, 2700, 2701, 2702, 2703, 2704, 2705, 2706, 2707, 2708, 2709, 2710, 2711, 2712, 2713, 
2714, 2715, 2716, 2717, 2718, 2719, 2720, 2721, 2722, 2723, 2724, 2725, 2726, 2727, 2728, 2729, 
2730, 2731, 2732, 2733, 2734, 2735, 2736, 2737, 2738, 2739, 2740, 2741, 2742, 2743, 2744, 2745, 
2746, 2747, 2748, 2749, 2750, 2751, 2752, 2753, 2754, 2755, 2756, 2757, 2758, 2759, 2760, 2761, 
2762, 2763, 2764, 2765, 2766, 2767, 2768, 2769, 2770, 2771, 2772, 2773, 2774, 2775, 2776, 2777, 
** ... 333 like lines cut
*Nset, Nset=Internal-1_Internal_Selection-1_Traction
2459, 4382, 4565, 2581, 7266, 7901, 7930, 7394, 4564, 2580, 7899, 7929, 7393, 4563, 2579, 7897, 
7928, 7392, 4562, 2578, 7895, 7927, 7391, 4561, 2577, 7893, 7926, 7390, 4560, 2576, 7891, 7925, 
7389, 4559, 2575, 7889, 7924, 7388, 4558, 2574, 7887, 7923, 7387, 4557, 2573, 7885, 7922, 7386, 
4556, 2572, 7883, 7921, 7385, 4555, 2571, 7881, 7920, 7384, 4554, 2570, 7879, 7919, 7383, 4553, 
2569, 7877, 7918, 7382, 4552, 2568, 7875, 7917, 7381, 4551, 2567, 7873, 7916, 7380, 4550, 2566, 
7871, 7915, 7379, 4549, 2565, 7869, 7914, 7378, 4548, 2564, 7867, 7913, 7377, 4547, 2563, 7865, 
7912, 7376, 4546, 2562, 7863, 7911, 7375, 4545, 2561, 7861, 7910, 7374, 4544, 2560, 7859, 7909, 
7373, 4543, 2559, 7857, 7908, 7372, 4542, 2558, 7855, 7907, 7371, 4541, 2557, 7853, 7906, 7370, 
4540, 2556, 7851, 7905, 7369, 4539, 2555, 7849, 7904, 7368, 4538, 2554, 7847, 7903, 7367, 4537, 
2553, 7845, 7902, 7366, 4388, 2463, 7843, 7334, 7365, 4381, 4536, 7265, 7842, 7900, 4535, 7840, 
7898, 4534, 7838, 7896, 4533, 7836, 7894, 4532, 7834, 7892, 4531, 7832, 7890, 4530, 7830, 7888, 
4529, 7828, 7886, 4528, 7826, 7884, 4527, 7824, 7882, 4526, 7822, 7880, 4525, 7820, 7878, 4524, 
7818, 7876, 4523, 7816, 7874, 4522, 7814, 7872, 4521, 7812, 7870, 4520, 7810, 7868, 4519, 7808, 
7866, 4518, 7806, 7864, 4517, 7804, 7862, 4516, 7802, 7860, 4515, 7800, 7858, 4514, 7798, 7856, 
4513, 7796, 7854, 4512, 7794, 7852, 4511, 7792, 7850, 4510, 7790, 7848, 4509, 7788, 7846, 4508, 
7786, 7844, 4387, 7784, 7333, 4380, 4507, 7264, 7783, 7841, 4506, 7781, 7839, 4505, 7779, 7837, 
4504, 7777, 7835, 4503, 7775, 7833, 4502, 7773, 7831, 4501, 7771, 7829, 4500, 7769, 7827, 4499, 
7767, 7825, 4498, 7765, 7823, 4497, 7763, 7821, 4496, 7761, 7819, 4495, 7759, 7817, 4494, 7757, 
7815, 4493, 7755, 7813, 4492, 7753, 7811, 4491, 7751, 7809, 4490, 7749, 7807, 4489, 7747, 7805, 
4488, 7745, 7803, 4487, 7743, 7801, 4486, 7741, 7799, 4485, 7739, 7797, 4484, 7737, 7795, 4483, 
** ... 7 like lines cut
**
** Element sets ++++++++++++++++++++++++++++++++++++++++++++
**
*Elset, Elset=C3D20
1606, 1607, 1608, 1609, 1610, 1611, 1612, 1613, 1614, 1615, 1616, 1617, 1618, 1619, 1620, 1621, 
1622, 1623, 1624, 1625, 1626, 1627, 1628, 1629, 1630, 1631, 1632, 1633, 1634, 1635, 1636, 1637, 
1638, 1639, 1640, 1641, 1642, 1643, 1644, 1645, 1646, 1647, 1648, 1649, 1650, 1651, 1652, 1653, 
1654, 1655, 1656, 1657, 1658, 1659, 1660, 1661, 1662, 1663, 1664, 1665, 1666, 1667, 1668, 1669, 
1670, 1671, 1672, 1673, 1674, 1675, 1676, 1677, 1678, 1679, 1680, 1681, 1682, 1683, 1684, 1685, 
1686, 1687, 1688, 1689, 1690, 1691, 1692, 1693, 1694, 1695, 1696, 1697, 1698, 1699, 1700, 1701, 
1702, 1703, 1704, 1705, 1706, 1707, 1708, 1709, 1710, 1711, 1712, 1713, 1714, 1715, 1716, 1717, 
1718, 1719, 1720, 1721, 1722, 1723, 1724, 1725, 1726, 1727, 1728, 1729, 1730, 1731, 1732, 1733, 
1734, 1735, 1736, 1737, 1738, 1739, 1740, 1741, 1742, 1743, 1744, 1745, 1746, 1747, 1748, 1749, 
1750, 1751, 1752, 1753, 1754, 1755, 1756, 1757, 1758, 1759, 1760, 1761, 1762, 1763, 1764, 1765, 
1766, 1767, 1768, 1769, 1770, 1771, 1772, 1773, 1774, 1775, 1776, 1777, 1778, 1779, 1780, 1781, 
1782, 1783, 1784, 1785, 1786, 1787, 1788, 1789, 1790, 1791, 1792, 1793, 1794, 1795, 1796, 1797, 
1798, 1799, 1800, 1801, 1802, 1803, 1804, 1805, 1806, 1807, 1808, 1809, 1810, 1811, 1812, 1813, 
1814, 1815, 1816, 1817, 1818, 1819, 1820, 1821, 1822, 1823, 1824, 1825, 1826, 1827, 1828, 1829, 
1830, 1831, 1832, 1833, 1834, 1835, 1836, 1837, 1838, 1839, 1840, 1841, 1842, 1843, 1844, 1845, 
1846, 1847, 1848, 1849, 1850, 1851, 1852, 1853, 1854, 1855, 1856, 1857, 1858, 1859, 1860, 1861, 
1862, 1863, 1864, 1865, 1866, 1867, 1868, 1869, 1870, 1871, 1872, 1873, 1874, 1875, 1876, 1877, 
1878, 1879, 1880, 1881, 1882, 1883, 1884, 1885, 1886, 1887, 1888, 1889, 1890, 1891, 1892, 1893, 
1894, 1895, 1896, 1897, 1898, 1899, 1900, 1901, 1902, 1903, 1904, 1905, 1906, 1907, 1908, 1909, 
1910, 1911, 1912, 1913, 1914, 1915, 1916, 1917, 1918, 1919, 1920, 1921, 1922, 1923, 1924, 1925, 
** ... 205 like lines cut
*Elset, Elset=Internal-1_Internal_Selection-1_Traction_S3
1606, 1607, 1608, 1609, 1610, 1611, 1612, 1613, 1614, 1615, 1616, 1617, 1618, 1619, 1620, 1621, 
1622, 1623, 1624, 1625, 1626, 1627, 1628, 1629, 1630, 1631, 1632, 1633, 1634, 1635, 2506, 2507, 
2508, 2509, 2510, 2511, 2512, 2513, 2514, 2515, 2516, 2517, 2518, 2519, 2520, 2521, 2522, 2523, 
2524, 2525, 2526, 2527, 2528, 2529, 2530, 2531, 2532, 2533, 2534, 2535, 3406, 3407, 3408, 3409, 
3410, 3411, 3412, 3413, 3414, 3415, 3416, 3417, 3418, 3419, 3420, 3421, 3422, 3423, 3424, 3425, 
3426, 3427, 3428, 3429, 3430, 3431, 3432, 3433, 3434, 3435, 4306, 4307, 4308, 4309, 4310, 4311, 
4312, 4313, 4314, 4315, 4316, 4317, 4318, 4319, 4320, 4321, 4322, 4323, 4324, 4325, 4326, 4327, 
4328, 4329, 4330, 4331, 4332, 4333, 4334, 4335
**
** Surfaces ++++++++++++++++++++++++++++++++++++++++++++++++
**
*Surface, Name=Internal_Selection-1_Traction, Type=Element
Internal-1_Internal_Selection-1_Traction_S3, S3
**
** Materials +++++++++++++++++++++++++++++++++++++++++++++++
**
** Name: Material-1: Deactivated
*Material, Name=Rubber
*Elastic,
70.0, 0.4999
**
** Sections ++++++++++++++++++++++++++++++++++++++++++++++++
**
*SOLID SECTION, ELSET=Solid_part-1, Material=Rubber
**
** Pre-tension sections ++++++++++++++++++++++++++++++++++++
**
**
** Constraints +++++++++++++++++++++++++++++++++++++++++++++
**
**
** Surface interactions ++++++++++++++++++++++++++++++++++++
**
**
** Contact pairs +++++++++++++++++++++++++++++++++++++++++++
**
**
** Steps +++++++++++++++++++++++++++++++++++++++++++++++++++
**
**
** Step-1 ++++++++++++++++++++++++++++++++++++++++++++++++++
**
*Step
*Static
**
** Boundary conditions +++++++++++++++++++++++++++++++++++++
**
*Boundary, op=New
** Name: Disp_rot-1
*Boundary
BC, 1, 1, 0
BC, 2, 2, 0
BC, 3, 3, 0
** Name: Disp_rot-2
*Boundary
ZSYMM, 3, 3, 0
**
** Loads +++++++++++++++++++++++++++++++++++++++++++++++++++
**
*Dload, op=New
*Cload, op=New
** Name: Traction
*Cload
2459, 2, -0.34722222200521
2581, 2, -0.694444444661458
4565, 2, -1.38888888932292
4382, 2, -0.694444444010419
7394, 2, 1.38888888802084
7930, 2, 2.77777777864583
7901, 2, 2.77777777604168
7266, 2, 1.38888888802084
2580, 2, -0.694444444661458
4564, 2, -1.38888888932292
7393, 2, 1.388888890625
7929, 2, 2.77777777864583
7899, 2, 2.77777778124999
2579, 2, -0.694444444010419
4563, 2, -1.38888888802084
7392, 2, 1.38888888802084
7928, 2, 2.77777777604168
7897, 2, 2.77777777604168
2578, 2, -0.694444444661458
4562, 2, -1.38888888932292
** ... 409 like lines cut
**
** History outputs +++++++++++++++++++++++++++++++++++++++++
**
*Node print, Nset=Vertex
U
**
** Field outputs +++++++++++++++++++++++++++++++++++++++++++
**
*Node file
RF, U
*El file
S, E
*NODE PRINT, NSET=Vertex,
U2
**
** End step ++++++++++++++++++++++++++++++++++++++++++++++++
**
*End step
