**
** Heading +++++++++++++++++++++++++++++++++++++++++++++++++
**
*Heading
Hash: PXJD0WWr, Date: 03/11/2021, Unit system: MM_TON_S_C
**
** Nodes +++++++++++++++++++++++++++++++++++++++++++++++++++
**
*Node
441, 9.79014731E+000, 1.41780234E+001, 2.49064206E+000
530, 1.94630166E+001, 2.38841367E+001, 0.00000000E+000
407, 0.00000000E+000, 2.20000000E+001, 0.00000000E+000
523, 3.87901525E+000, 1.43979347E+001, 0.00000000E+000
412, 3.80065203E+001, 4.67331437E+001, 0.00000000E+000
475, 0.00000000E+000, 1.65000000E+001, 5.00000000E+000
432, 3.44644327E+001, 3.83298303E+001, 2.39541083E+000
411, 0.00000000E+000, 3.30000000E+001, 5.00000000E+000
476, 0.00000000E+000, 2.75000000E+001, 5.00000000E+000
400, 1.20000000E+001, 4.80000000E+001, 0.00000000E+000
439, 1.24811499E+001, 1.89365467E+001, 2.48863765E+000
502, 0.00000000E+000, 2.75000000E+001, 2.50000000E+000
532, 1.79398670E+001, 3.09438263E+001, 0.00000000E+000
488, 4.00000000E+001, 3.66666667E+001, 2.50000000E+000
399, 4.80000000E+001, 5.20000000E+001, 5.00000000E+000
481, 2.80000000E+001, 2.56666667E+001, 2.50000000E+000
410, 0.00000000E+000, 2.20000000E+001, 5.00000000E+000
500, 0.00000000E+000, 1.65000000E+001, 2.50000000E+000
531, 3.43009886E+001, 4.34726325E+001, 0.00000000E+000
385, 4.80000000E+001, 6.00000000E+001, 5.00000000E+000
** ... 319 like lines cut
**
** Elements ++++++++++++++++++++++++++++++++++++++++++++++++
**
*Element, Type=C3D10, Elset=Solid_part-1
395, 436, 429, 402, 405, 573, 572, 571, 574, 575, 497
396, 417, 420, 426, 413, 578, 577, 576, 533, 580, 579
397, 411, 407, 408, 425, 502, 472, 504, 581, 583, 582
398, 411, 437, 422, 425, 585, 584, 555, 581, 587, 586
399, 426, 422, 415, 413, 590, 589, 588, 579, 591, 536
400, 436, 405, 402, 401, 574, 497, 571, 592, 495, 464
401, 419, 424, 415, 422, 567, 594, 593, 564, 570, 589
402, 393, 432, 427, 388, 597, 596, 595, 488, 599, 598
403, 426, 403, 435, 422, 602, 601, 600, 590, 554, 603
404, 422, 411, 387, 437, 555, 477, 553, 584, 585, 604
405, 401, 436, 405, 404, 592, 574, 495, 494, 605, 468
406, 427, 381, 421, 393, 607, 545, 606, 595, 450, 546
407, 428, 433, 407, 410, 610, 609, 608, 611, 612, 501
408, 412, 436, 401, 417, 613, 592, 520, 531, 614, 534
409, 424, 419, 415, 418, 567, 593, 594, 615, 616, 539
410, 389, 394, 432, 430, 480, 618, 617, 619, 621, 620
411, 421, 399, 429, 405, 548, 623, 622, 563, 549, 575
412, 424, 415, 413, 418, 594, 536, 624, 615, 539, 532
413, 413, 415, 424, 422, 536, 594, 624, 591, 589, 570
414, 419, 422, 415, 425, 564, 589, 593, 625, 586, 626
** ... 153 like lines cut
**
** Node sets +++++++++++++++++++++++++++++++++++++++++++++++
**
*Nset, Nset=BC
382, 383, 386, 387, 406, 407, 408, 409, 410, 411, 443, 461, 470, 471, 472, 473, 
474, 475, 476, 477, 499, 500, 501, 502, 503, 504, 505
*Nset, Nset=Vertex
385
*Nset, Nset=Load
380, 381, 384, 385, 398, 399, 442, 456, 457, 458, 459, 460, 489, 490, 491
*Nset, Nset=ZSYMM
380, 381, 382, 383, 384, 385, 386, 387, 388, 389, 390, 391, 392, 393, 394, 395, 
396, 397, 398, 399, 400, 401, 402, 403, 404, 405, 406, 407, 408, 409, 410, 411, 
412, 413, 414, 415, 416, 417, 418, 419, 420, 421, 422, 423, 424, 444, 445, 446, 
447, 448, 449, 450, 451, 452, 453, 454, 455, 457, 458, 459, 460, 462, 463, 464, 
465, 466, 467, 468, 469, 470, 471, 472, 473, 474, 475, 476, 477, 506, 507, 508, 
509, 510, 511, 512, 513, 514, 515, 516, 517, 518, 519, 520, 521, 522, 523, 524, 
525, 526, 527, 528, 529, 530, 531, 532, 533, 534, 535, 536, 537, 538, 539, 540, 
541, 542, 543, 544, 545, 546, 547, 548, 549, 550, 551, 552, 553, 554, 555, 556, 
557, 558, 559, 560, 561, 562, 563, 564, 565, 566, 567, 568, 569, 570
*Nset, Nset=Internal-1_Internal_Selection-1_Traction
385, 398, 384, 490, 457, 456, 399, 380, 489, 491, 458, 459, 381, 460, 442
**
** Element sets ++++++++++++++++++++++++++++++++++++++++++++
**
*Elset, Elset=C3D10
395, 396, 397, 398, 399, 400, 401, 402, 403, 404, 405, 406, 407, 408, 409, 410, 
411, 412, 413, 414, 415, 416, 417, 418, 419, 420, 421, 422, 423, 424, 425, 426, 
427, 428, 429, 430, 431, 432, 433, 434, 435, 436, 437, 438, 439, 440, 441, 442, 
443, 444, 445, 446, 447, 448, 449, 450, 451, 452, 453, 454, 455, 456, 457, 458, 
459, 460, 461, 462, 463, 464, 465, 466, 467, 468, 469, 470, 471, 472, 473, 474, 
475, 476, 477, 478, 479, 480, 481, 482, 483, 484, 485, 486, 487, 488, 489, 490, 
491, 492, 493, 494, 495, 496, 497, 498, 499, 500, 501, 502, 503, 504, 505, 506, 
507, 508, 509, 510, 511, 512, 513, 514, 515, 516, 517, 518, 519, 520, 521, 522, 
523, 524, 525, 526, 527, 528, 529, 530, 531, 532, 533, 534, 535, 536, 537, 538, 
539, 540, 541, 542, 543, 544, 545, 546, 547, 548, 549, 550, 551, 552, 553, 554, 
555, 556, 557, 558, 559, 560, 561, 562, 563, 564, 565, 566, 567
*Elset, Elset=Internal-1_Internal_Selection-1_Traction_S1
419
*Elset, Elset=Internal-2_Internal_Selection-1_Traction_S2
430, 479
*Elset, Elset=Internal-3_Internal_Selection-1_Traction_S4
466
**
** Surfaces ++++++++++++++++++++++++++++++++++++++++++++++++
**
*Surface, Name=Internal_Selection-1_Traction, Type=Element
Internal-1_Internal_Selection-1_Traction_S1, S1
Internal-2_Internal_Selection-1_Traction_S2, S2
Internal-3_Internal_Selection-1_Traction_S4, S4
**
** Materials +++++++++++++++++++++++++++++++++++++++++++++++
**
** Name: Material-1: Deactivated
*Material, Name=Rubber
*Elastic,
70.0, 0.4999
**
** Sections ++++++++++++++++++++++++++++++++++++++++++++++++
**
*SOLID SECTION, ELSET=Solid_part-1, Material=Rubber
**
** Pre-tension sections ++++++++++++++++++++++++++++++++++++
**
**
** Constraints +++++++++++++++++++++++++++++++++++++++++++++
**
**
** Surface interactions ++++++++++++++++++++++++++++++++++++
**
**
** Contact pairs +++++++++++++++++++++++++++++++++++++++++++
**
**
** Steps +++++++++++++++++++++++++++++++++++++++++++++++++++
**
**
** Step-1 ++++++++++++++++++++++++++++++++++++++++++++++++++
**
*Step
*Static
**
** Boundary conditions +++++++++++++++++++++++++++++++++++++
**
*Boundary, op=New
** Name: Disp_rot-1
*Boundary
BC, 1, 1, 0
BC, 2, 2, 0
BC, 3, 3, 0
** Name: Disp_rot-2
*Boundary
ZSYMM, 3, 3, 0
**
** Loads +++++++++++++++++++++++++++++++++++++++++++++++++++
**
*Dload, op=New
*Cload, op=New
** Name: Traction
*Cload
456, 2, 41.6666666666667
457, 2, 41.6666666666667
490, 2, 83.3333333333333
458, 2, 41.6666666666667
491, 2, 83.3333333333333
489, 2, 83.3333333333333
442, 2, 41.6666666666667
460, 2, 41.6666666666667
459, 2, 41.6666666666667
**
** History outputs +++++++++++++++++++++++++++++++++++++++++
**
*Node print, Nset=Vertex
U
**
** Field outputs +++++++++++++++++++++++++++++++++++++++++++
**
*Node file
RF, U
*El file
S, E
*NODE PRINT, NSET=Vertex,
U2
**
** End step ++++++++++++++++++++++++++++++++++++++++++++++++
**
*End step
